1
    SWAT Nov 14  VER 2023/Rev 692                                                                        0/ 0/   0      0: 0: 0

    General Input/Output section (file.cio):                                        
    4/10/2024 12:00:00 AM ARCGIS-SWAT interface AV                                  
                                                                                    


LULC  HRU       GIS  SUB  MGT  MON   AREAkm2  PRECIPmm SNOFALLmm SNOMELTmm     IRRmm     PETmm      ETmm SW_INITmm  SW_ENDmm    PERCmm GW_RCHGmm DA_RCHGmm   REVAPmm  SA_IRRmm  DA_IRRmm   SA_STmm   DA_STmmSURQ_GENmmSURQ_CNTmm   TLOSSmm LATQGENmm    GW_Qmm    WYLDmm   DAILYCN TMP_AVdgC TMP_MXdgC TMP_MNdgCSOL_TMPdgCSOLARMJ/m2  SYLDt/ha  USLEt/haN_APPkg/haP_APPkg/haNAUTOkg/haPAUTOkg/ha NGRZkg/ha PGRZkg/haNCFRTkg/haPCFRTkg/haNRAINkg/ha NFIXkg/ha F-MNkg/ha A-MNkg/ha A-SNkg/ha F-MPkg/haAO-LPkg/ha L-APkg/ha A-SPkg/ha DNITkg/ha  NUPkg/ha  PUPkg/ha ORGNkg/ha ORGPkg/ha SEDPkg/haNSURQkg/haNLATQkg/ha NO3Lkg/haNO3GWkg/ha SOLPkg/ha P_GWkg/ha    W_STRS  TMP_STRS    N_STRS    P_STRS  BIOMt/ha       LAI   YLDt/ha  BACTPct   BACTLPct WTAB_CLIm WTAB_SOLm     SNOmm CMUPkg/haCMTOTkg/ha   QTILEmm TNO3kg/ha LNO3kg/ha  GW_Q_Dmm LATQCNTmm TVAPkg/ha
FRST    1 000010001    1    0    1.32051E+00    30.300     2.500    47.599     0.000     7.369     5.916   634.671   629.778    26.917    25.392     1.270     0.147     0.000     0.000  1017.559  2003.868    45.200    45.200     0.000     2.361    32.298    81.053    97.476    -1.153     1.381    -3.687    -3.275     2.783     0.013     0.006     0.000     0.000     0.000     0.000     0.000     0.000     0.000     0.000     0.000     0.000     0.550     0.177    -0.060     0.097     0.030     0.020     0.046     0.000     0.000     0.000     0.263     0.033     0.028     0.003     0.004     1.319     0.013     0.016     0.000     0.000     0.000     0.000     0.000     0.000     0.000     0.000 .00000E+00 .00000E+00 0.111E-05 0.404E+04 0.000E+00 0.000E+00 0.000E+00 0.000E+00 0.000E+00 0.432E-02     1.194     2.361     0.000
FRST    2 000010002    1    0    1.44173E+00    30.300     2.500    47.599     0.000     7.369     5.915   587.885   608.045     0.000     0.000     0.000     0.147     0.000     0.000   976.785  2000.000    33.090    33.090     0.000     5.712     0.000    38.802    94.993    -1.153     1.381    -3.687    -3.320     2.783     0.026     0.010     0.000     0.000     0.000     0.000     0.000     0.000     0.000     0.000     0.000     0.000     0.550     0.174    -0.057     0.097     0.030     0.017     0.051     0.000     0.000     0.000     0.512     0.063     0.055     0.000     0.009     0.000     0.000     0.011     0.000     0.000     0.000     0.000     0.000     0.000     0.000     0.000 .00000E+00 .00000E+00 0.111E-05 0.404E+04 0.000E+00 0.000E+00 0.000E+00 0.000E+00 0.000E+00 0.884E-02     0.000     5.712     0.000
FRST    3 000010003    1    0    1.57310E+00    30.300     2.500    47.599     0.000     7.369     5.765   139.987   136.436    31.955    30.328     1.516     0.147     0.000     0.000  1018.657  2005.492    36.456    36.459     0.000     0.170    40.046    78.428    96.060    -1.153     1.381    -3.687    -3.383     2.783     0.003     0.002     0.000     0.000     0.000     0.000     0.000     0.000     0.000     0.000     0.000     0.000     0.531     0.186    -0.064     0.097     0.032     0.028     0.074     0.054     0.000     0.000     0.029     0.004     0.003     0.001     0.000     0.123     0.001     0.008     0.000     0.000     0.000     0.000     0.000     0.000     0.000     0.000 .00000E+00 .00000E+00 0.111E-05 0.359E+04 0.000E+00 0.000E+00 0.000E+00 0.000E+00 0.000E+00 0.195E-03     1.753     0.170     0.000
BERM    4 000010004    1    0    1.24968E+01    30.300     2.500    47.599     0.000     7.369     6.266   634.564   629.608    27.183    24.707     1.235     0.147     0.000     0.000  1017.232  2003.508    45.354    45.381     0.000     1.032    30.837    78.317    97.677    -1.153     1.381    -3.687    -3.331     2.783     0.037     0.015     0.000     0.000     0.000     0.000     0.000     0.000     0.000     0.000     0.000     0.000     5.433     0.185    -0.013     1.355     0.032     0.475     0.152     0.000     0.000     0.000     0.891     0.130     0.117     0.035     0.003     0.051     0.000     0.020     0.000     0.000     0.000     0.000     0.000     0.000     0.000     0.000 .00000E+00 .00000E+00 0.116E-05 0.404E+04 0.000E+00 0.000E+00 0.000E+00 0.000E+00 0.000E+00 0.271E-02     1.067     1.032     0.000
PAST    5 000010005    1    0    1.28604E+01    30.300     2.500    47.599     0.000     7.369     6.530   634.284   629.467    26.150    24.662     1.233     0.147     0.000     0.000  1016.924  2003.648    46.085    46.196     0.000     0.783    31.233    79.332    97.918    -1.153     1.381    -3.687    -3.314     2.783     0.102     0.032     0.000     0.000     0.000     0.000     0.000     0.000     0.000     0.000     0.000     0.000     2.672     0.180    -0.041     0.661     0.031     0.225     0.085     0.000     0.000     0.000     2.288     0.308     0.254     0.019     0.001     0.043     0.000     0.019     0.000     0.000     0.000     0.000     0.000     0.000     0.000     0.000 .00000E+00 .00000E+00 0.112E-05 0.404E+04 0.000E+00 0.000E+00 0.000E+00 0.000E+00 0.000E+00 0.109E-02     1.120     0.783     0.000
PAST    6 000010006    1    0    1.12338E+01    30.300     2.500    47.599     0.000     7.369     6.397   135.206   133.811    22.240    27.730     1.387     0.147     0.000     0.000  1016.876  2005.075    44.762    44.811     0.000     0.113    37.902    84.458    97.415    -1.153     1.381    -3.687    -3.391     2.783     0.070     0.026     0.000     0.000     0.000     0.000     0.000     0.000     0.000     0.000     0.000     0.000     2.221     0.189    -0.047     0.543     0.032     0.140     0.106     0.000     0.000     0.000     0.674     0.097     0.074     0.009     0.000     0.046     0.000     0.014     0.000     0.000     0.000     0.000     0.000     0.000     0.000     0.000 .00000E+00 .00000E+00 0.113E-05 0.359E+04 0.000E+00 0.000E+00 0.000E+00 0.000E+00 0.000E+00 0.961E-04     1.631     0.113     0.000
AGRR    7 000010007    1    0    1.28941E+01    30.300     2.500    47.599     0.000     7.369     5.753   633.960   629.528    24.998    20.143     1.007     0.147     0.000     0.000  1013.855  2002.640    47.514    47.595     0.000     0.815    23.832    73.028    98.308    -1.153     1.381    -3.687    -3.318     2.783     1.301     0.546     0.000     0.000     0.000     0.000     0.000     0.000     0.000     0.000     0.000     0.000     1.679     0.178    -0.044     0.363     0.031     0.109     0.130     0.000     0.000     0.000    19.507     2.606     1.984     0.028     0.002     0.026     0.000     0.014     0.000     0.000     0.000     0.000     0.000     0.000     0.000     0.000 .00000E+00 .00000E+00 0.117E-05 0.404E+04 0.000E+00 0.000E+00 0.000E+00 0.000E+00 0.000E+00 0.187E-02     0.786     0.815     0.000
AGRR    8 000010008    1    0    1.11196E+01    30.300     2.500    47.599     0.000     7.369     5.607   134.253   133.767    20.498    24.005     1.200     0.147     0.000     0.000  1015.775  2004.105    46.335    46.377     0.000     0.098    32.035    79.816    98.006    -1.153     1.381    -3.687    -3.408     2.783     0.475     0.220     0.000     0.000     0.000     0.000     0.000     0.000     0.000     0.000     0.000     0.000     1.769     0.189    -0.045     0.381     0.032     0.124     0.121     0.000     0.000     0.000     4.404     0.626     0.411     0.024     0.000     0.029     0.000     0.011     0.000     0.000     0.000     0.000     0.000     0.000     0.000     0.000 .00000E+00 .00000E+00 0.116E-05 0.359E+04 0.000E+00 0.000E+00 0.000E+00 0.000E+00 0.000E+00 0.112E-03     1.307     0.098     0.000
AGRR    9 000020001    2    0    1.26080E+01    27.700     2.000    44.634     0.000     6.788     5.236   134.031   134.288    17.735    22.992     1.150     0.136     0.000     0.000  1014.957  2004.006    43.449    43.492     0.000     0.146    31.258    76.178    98.145    -1.202     1.381    -3.784    -3.437     2.770     0.471     0.328     0.000     0.000     0.000     0.000     0.000     0.000     0.000     0.000     0.000     0.000     1.462     0.186    -0.050     0.319     0.032     0.111     0.118     0.000     0.000     0.000     3.579     0.516     0.330     0.022     0.000     0.025     0.000     0.009     0.000     0.000     0.000     0.000     0.000     0.000     0.000     0.000 .00000E+00 .00000E+00 0.114E-05 0.359E+04 0.000E+00 0.000E+00 0.000E+00 0.000E+00 0.000E+00 0.155E-03     1.282     0.146     0.000
AGRR   10 000020002    2    0    1.18377E+01    27.700     2.000    44.634     0.000     6.788     5.373   633.661   629.588    23.619    19.765     0.988     0.136     0.000     0.000  1013.633  2002.618    43.833    43.893     0.000     0.642    23.669    68.987    98.306    -1.202     1.381    -3.784    -3.349     2.770     0.478     0.349     0.000     0.000     0.000     0.000     0.000     0.000     0.000     0.000     0.000     0.000     1.727     0.179    -0.043     0.377     0.031     0.154     0.127     0.000     0.000     0.000     7.936     1.057     0.813     0.027     0.002     0.024     0.000     0.013     0.000     0.000     0.000     0.000     0.000     0.000     0.000     0.000 .00000E+00 .00000E+00 0.113E-05 0.404E+04 0.000E+00 0.000E+00 0.000E+00 0.000E+00 0.000E+00 0.150E-02     0.783     0.642     0.000
BERM   11 000020003    2    0    1.89816E+00    27.700     2.000    44.634     0.000     6.788     5.754   138.141   135.217    26.702    27.148     1.357     0.136     0.000     0.000  1017.003  2004.811    36.529    36.533     0.000     0.156    36.148    74.372    96.510    -1.202     1.381    -3.784    -3.456     2.770     0.009     0.008     0.000     0.000     0.000     0.000     0.000     0.000     0.000     0.000     0.000     0.000     4.949     0.195    -0.017     1.228     0.034     0.311     0.202     0.011     0.000     0.000     0.090     0.015     0.012     0.016     0.000     0.067     0.000     0.016     0.000     0.000     0.000     0.000     0.000     0.000     0.000     0.000 .00000E+00 .00000E+00 0.114E-05 0.359E+04 0.000E+00 0.000E+00 0.000E+00 0.000E+00 0.000E+00 0.225E-03     1.534     0.156     0.000
BERM   12 000020004    2    0    1.74586E+00    27.700     2.000    44.634     0.000     6.788     5.855   634.225   629.644    25.557    23.953     1.198     0.136     0.000     0.000  1016.692  2003.419    41.907    41.915     0.000     0.936    30.138    74.032    97.670    -1.202     1.381    -3.784    -3.358     2.770     0.014     0.012     0.000     0.000     0.000     0.000     0.000     0.000     0.000     0.000     0.000     0.000     5.476     0.185    -0.013     1.366     0.032     0.482     0.156     0.000     0.000     0.000     0.299     0.044     0.039     0.033     0.002     0.048     0.000     0.019     0.000     0.000     0.000     0.000     0.000     0.000     0.000     0.000 .00000E+00 .00000E+00 0.114E-05 0.404E+04 0.000E+00 0.000E+00 0.000E+00 0.000E+00 0.000E+00 0.246E-02     1.043     0.936     0.000
PAST   13 000020005    2    0    1.18515E+01    27.700     2.000    44.634     0.000     6.788     6.000   134.787   133.478    20.963    26.851     1.343     0.136     0.000     0.000  1016.342  2004.942    41.341    41.384     0.000     0.143    36.839    79.956    97.404    -1.202     1.381    -3.784    -3.410     2.770     0.047     0.035     0.000     0.000     0.000     0.000     0.000     0.000     0.000     0.000     0.000     0.000     2.230     0.189    -0.047     0.545     0.032     0.143     0.107     0.000     0.000     0.000     0.407     0.059     0.045     0.008     0.000     0.043     0.000     0.013     0.000     0.000     0.000     0.000     0.000     0.000     0.000     0.000 .00000E+00 .00000E+00 0.111E-05 0.359E+04 0.000E+00 0.000E+00 0.000E+00 0.000E+00 0.000E+00 0.120E-03     1.591     0.143     0.000
PAST   14 000020006    2    0    1.15243E+01    27.700     2.000    44.634     0.000     6.788     6.113   633.962   629.510    24.589    23.964     1.198     0.136     0.000     0.000  1016.500  2003.563    42.577    42.640     0.000     0.719    30.607    75.062    97.913    -1.202     1.381    -3.784    -3.334     2.770     0.041     0.035     0.000     0.000     0.000     0.000     0.000     0.000     0.000     0.000     0.000     0.000     2.696     0.180    -0.041     0.667     0.031     0.229     0.086     0.000     0.000     0.000     0.841     0.113     0.093     0.018     0.001     0.040     0.000     0.018     0.000     0.000     0.000     0.000     0.000     0.000     0.000     0.000 .00000E+00 .00000E+00 0.109E-05 0.404E+04 0.000E+00 0.000E+00 0.000E+00 0.000E+00 0.000E+00 0.992E-03     1.096     0.719     0.000
FRST   15 000020007    2    0    1.10436E+01    27.700     2.000    44.634     0.000     6.788     5.385   139.292   134.950    27.991    26.304     1.315     0.136     0.000     0.000  1016.099  2004.732    33.687    33.687     0.000     1.812    34.735    71.743    96.025    -1.202     1.381    -3.784    -3.413     2.770     0.006     0.005     0.000     0.000     0.000     0.000     0.000     0.000     0.000     0.000     0.000     0.000     0.547     0.185    -0.064     0.097     0.032     0.034     0.078     0.029     0.000     0.000     0.038     0.005     0.004     0.001     0.003     0.174     0.001     0.007     0.000     0.000     0.000     0.000     0.000     0.000     0.000     0.000 .00000E+00 .00000E+00 0.109E-05 0.359E+04 0.000E+00 0.000E+00 0.000E+00 0.000E+00 0.000E+00 0.310E-02     1.509     1.812     0.000
FRST   16 000020008    2    0    1.24870E+01    27.700     2.000    44.634     0.000     6.788     5.385   139.554   136.088    30.085    29.267     1.463     0.136     0.000     0.000  1017.846  2005.360    33.701    33.715     0.000     0.152    38.900    74.481    96.044    -1.202     1.381    -3.784    -3.414     2.770     0.002     0.001     0.000     0.000     0.000     0.000     0.000     0.000     0.000     0.000     0.000     0.000     0.532     0.186    -0.064     0.097     0.032     0.031     0.075     0.040     0.000     0.000     0.012     0.001     0.001     0.001     0.000     0.126     0.001     0.007     0.000     0.000     0.000     0.000     0.000     0.000     0.000     0.000 .00000E+00 .00000E+00 0.109E-05 0.359E+04 0.000E+00 0.000E+00 0.000E+00 0.000E+00 0.000E+00 0.188E-03     1.715     0.152     0.000
FRST   17 000020009    2    0    1.84238E+00    27.700     2.000    44.634     0.000     6.788     5.517   634.080   629.047    21.410    13.755     0.688     0.136     0.000     0.000  1007.132  2001.405    41.733    41.733     0.000     4.988     7.699    54.805    97.424    -1.202     1.381    -3.784    -3.307     2.770     0.015     0.011     0.000     0.000     0.000     0.000     0.000     0.000     0.000     0.000     0.000     0.000     0.546     0.177    -0.059     0.097     0.030     0.030     0.055     0.000     0.000     0.000     0.259     0.032     0.028     0.003     0.017     2.485     0.003     0.014     0.000     0.000     0.000     0.000     0.000     0.000     0.000     0.000 .00000E+00 .00000E+00 0.109E-05 0.404E+04 0.000E+00 0.000E+00 0.000E+00 0.000E+00 0.000E+00 0.172E-01     0.385     4.988     0.000
FRST   18 000020010    2    0    1.11953E+01    27.700     2.000    44.634     0.000     6.788     5.518   634.402   629.888    25.808    25.557     1.278     0.136     0.000     0.000  1016.760  2004.029    41.778    41.784     0.000     1.405    33.004    77.446    97.467    -1.202     1.381    -3.784    -3.307     2.770     0.006     0.003     0.000     0.000     0.000     0.000     0.000     0.000     0.000     0.000     0.000     0.000     0.546     0.177    -0.060     0.097     0.030     0.022     0.047     0.000     0.000     0.000     0.102     0.013     0.011     0.003     0.003     1.171     0.013     0.015     0.000     0.000     0.000     0.000     0.000     0.000     0.000     0.000 .00000E+00 .00000E+00 0.109E-05 0.404E+04 0.000E+00 0.000E+00 0.000E+00 0.000E+00 0.000E+00 0.251E-02     1.253     1.405     0.000
AGRR   19 000030001    3    0    1.10553E+02    33.800     2.900    55.275     0.000     7.288     5.678   633.494   629.788    24.785    20.679     1.034     0.146     0.000     0.000  1014.487  2002.937    57.780    58.013     0.000     0.627    25.276    84.807    98.394    -1.195     1.406    -3.797    -3.441     2.731     0.700     0.414     0.000     0.000     0.000     0.000     0.000     0.000     0.000     0.000     0.000     0.000     1.400     0.175    -0.047     0.307     0.030     0.084     0.132     0.000     0.000     0.000    13.544     1.812     1.379     0.030     0.002     0.057     0.000     0.016     0.000     0.000     0.000     0.000     0.000     0.000     0.000     0.000 .00000E+00 .00000E+00 0.115E-05 0.404E+04 0.000E+00 0.000E+00 0.000E+00 0.000E+00 0.000E+00 0.161E-02     0.892     0.627     0.000
BERM   20 000030002    3    0    1.47503E+01    33.800     2.900    55.275     0.000     7.288     6.184   634.122   629.948    28.013    25.294     1.265     0.146     0.000     0.000  1017.066  2003.912    54.478    54.514     0.000     0.811    32.135    88.668    97.686    -1.195     1.406    -3.797    -3.440     2.731     0.018     0.010     0.000     0.000     0.000     0.000     0.000     0.000     0.000     0.000     0.000     0.000     5.407     0.185    -0.013     1.347     0.032     0.465     0.149     0.000     0.000     0.000     0.470     0.069     0.061     0.043     0.002     0.053     0.000     0.024     0.000     0.000     0.000     0.000     0.000     0.000     0.000     0.000 .00000E+00 .00000E+00 0.107E-05 0.404E+04 0.000E+00 0.000E+00 0.000E+00 0.000E+00 0.000E+00 0.215E-02     1.210     0.811     0.000
PAST   21 000030003    3    0    1.11129E+02    33.800     2.900    55.275     0.000     7.288     6.447   633.866   629.810    26.953    25.156     1.258     0.146     0.000     0.000  1016.972  2004.030    55.363    55.887     0.000     0.424    32.314    89.880    97.925    -1.195     1.406    -3.797    -3.410     2.731     0.049     0.029     0.000     0.000     0.000     0.000     0.000     0.000     0.000     0.000     0.000     0.000     2.663     0.180    -0.041     0.657     0.031     0.218     0.083     0.000     0.000     0.000     1.218     0.164     0.136     0.023     0.001     0.045     0.000     0.023     0.000     0.000     0.000     0.000     0.000     0.000     0.000     0.000 .00000E+00 .00000E+00 0.104E-05 0.404E+04 0.000E+00 0.000E+00 0.000E+00 0.000E+00 0.000E+00 0.916E-03     1.255     0.424     0.000
FRST   22 000030004    3    0    1.29690E+01    33.800     2.900    55.275     0.000     7.288     5.831   550.129   577.536     0.000     0.000     0.000     0.146     0.000     0.000   977.219  2000.000    30.344    30.344     0.000     6.846     0.000    37.190    92.207    -1.195     1.406    -3.797    -3.472     2.731     0.014     0.017     0.000     0.000     0.000     0.000     0.000     0.000     0.000     0.000     0.000     0.000     0.548     0.171    -0.057     0.097     0.029     0.002     0.048     0.000     0.000     0.000     0.306     0.038     0.033     0.000     0.012     0.000     0.000     0.010     0.000     0.000     0.000     0.000     0.000     0.000     0.000     0.000 .00000E+00 .00000E+00 0.102E-05 0.404E+04 0.000E+00 0.000E+00 0.000E+00 0.000E+00 0.000E+00 0.116E-01     0.000     6.846     0.000
FRST   23 000030005    3    0    1.25383E+01    33.800     2.900    55.275     0.000     7.288     5.831   634.284   630.161    27.961    26.234     1.312     0.146     0.000     0.000  1017.370  2004.348    54.226    54.228     0.000     1.911    33.897    91.398    97.478    -1.195     1.406    -3.797    -3.395     2.731     0.007     0.004     0.000     0.000     0.000     0.000     0.000     0.000     0.000     0.000     0.000     0.000     0.548     0.176    -0.060     0.097     0.030     0.016     0.046     0.000     0.000     0.000     0.159     0.020     0.017     0.004     0.003     1.028     0.011     0.019     0.000     0.000     0.000     0.000     0.000     0.000     0.000     0.000 .00000E+00 .00000E+00 0.102E-05 0.404E+04 0.000E+00 0.000E+00 0.000E+00 0.000E+00 0.000E+00 0.309E-02     1.362     1.911     0.000
FRST   24 000040001    4    0    1.15333E+01    30.300     2.500    47.599     0.000     7.373     5.918   634.674   629.795    27.004    25.579     1.279     0.147     0.000     0.000  1017.729  2003.916    45.201    45.202     0.000     2.152    32.582    81.147    97.477    -1.153     1.381    -3.687    -3.275     2.783     0.013     0.005     0.000     0.000     0.000     0.000     0.000     0.000     0.000     0.000     0.000     0.000     0.550     0.177    -0.060     0.097     0.030     0.019     0.046     0.000     0.000     0.000     0.272     0.034     0.029     0.003     0.004     1.296     0.013     0.016     0.000     0.000     0.000     0.000     0.000     0.000     0.000     0.000 .00000E+00 .00000E+00 0.111E-05 0.404E+04 0.000E+00 0.000E+00 0.000E+00 0.000E+00 0.000E+00 0.391E-02     1.210     2.152     0.000
FRST   25 000040002    4    0    1.28757E+01    30.300     2.500    47.599     0.000     7.373     5.918   530.177   556.671     0.000     0.000     0.000     0.147     0.000     0.000   976.781  2000.000    21.594    21.594     0.000     6.350     0.000    27.943    90.693    -1.153     1.381    -3.687    -3.367     2.783     0.021     0.016     0.000     0.000     0.000     0.000     0.000     0.000     0.000     0.000     0.000     0.000     0.550     0.170    -0.056     0.097     0.029     0.004     0.045     0.000     0.000     0.000     0.407     0.050     0.043     0.000     0.011     0.000     0.000     0.007     0.000     0.000     0.000     0.000     0.000     0.000     0.000     0.000 .00000E+00 .00000E+00 0.111E-05 0.404E+04 0.000E+00 0.000E+00 0.000E+00 0.000E+00 0.000E+00 0.110E-01     0.000     6.350     0.000
AGRR   26 000040003    4    0    1.81694E+01    30.300     2.500    47.599     0.000     7.373     5.755   633.957   629.530    25.010    20.185     1.009     0.147     0.000     0.000  1013.917  2002.648    47.514    47.744     0.000     0.768    23.895    73.196    98.308    -1.153     1.381    -3.687    -3.318     2.783     1.271     0.468     0.000     0.000     0.000     0.000     0.000     0.000     0.000     0.000     0.000     0.000     1.679     0.178    -0.044     0.363     0.031     0.110     0.130     0.000     0.000     0.000    19.634     2.622     1.997     0.028     0.002     0.026     0.000     0.014     0.000     0.000     0.000     0.000     0.000     0.000     0.000     0.000 .00000E+00 .00000E+00 0.120E-05 0.404E+04 0.000E+00 0.000E+00 0.000E+00 0.000E+00 0.000E+00 0.176E-02     0.789     0.768     0.000
PAST   27 000040004    4    0    1.78754E+01    30.300     2.500    47.599     0.000     7.373     6.533   634.283   629.472    26.176    24.721     1.236     0.147     0.000     0.000  1017.009  2003.663    46.085    46.367     0.000     0.703    31.323    79.520    97.918    -1.153     1.381    -3.687    -3.314     2.783     0.094     0.031     0.000     0.000     0.000     0.000     0.000     0.000     0.000     0.000     0.000     0.000     2.675     0.180    -0.041     0.661     0.031     0.225     0.085     0.000     0.000     0.000     2.174     0.293     0.242     0.019     0.001     0.043     0.000     0.019     0.000     0.000     0.000     0.000     0.000     0.000     0.000     0.000 .00000E+00 .00000E+00 0.112E-05 0.404E+04 0.000E+00 0.000E+00 0.000E+00 0.000E+00 0.000E+00 0.976E-03     1.125     0.703     0.000
FRST   28 000050001    5    0    1.33419E+01    30.300     2.500    47.600     0.000     7.366     5.763   139.990   136.444    31.971    30.347     1.517     0.147     0.000     0.000  1018.668  2005.496    36.457    36.471     0.000     0.149    40.072    78.446    96.060    -1.153     1.381    -3.687    -3.383     2.783     0.003     0.001     0.000     0.000     0.000     0.000     0.000     0.000     0.000     0.000     0.000     0.000     0.531     0.186    -0.064     0.097     0.032     0.028     0.074     0.054     0.000     0.000     0.029     0.004     0.003     0.001     0.000     0.123     0.001     0.008     0.000     0.000     0.000     0.000     0.000     0.000     0.000     0.000 .00000E+00 .00000E+00 0.111E-05 0.359E+04 0.000E+00 0.000E+00 0.000E+00 0.000E+00 0.000E+00 0.171E-03     1.754     0.149     0.000
AGRR   29 000050002    5    0    1.40557E+01    30.300     2.500    47.600     0.000     7.366     5.607   134.253   133.760    20.487    23.984     1.199     0.147     0.000     0.000  1015.760  2004.100    46.335    46.403     0.000     0.118    32.004    79.830    98.006    -1.153     1.381    -3.687    -3.408     2.783     0.696     0.248     0.000     0.000     0.000     0.000     0.000     0.000     0.000     0.000     0.000     0.000     1.742     0.189    -0.046     0.376     0.032     0.108     0.115     0.000     0.000     0.000     5.956     0.851     0.553     0.024     0.000     0.029     0.000     0.010     0.000     0.000     0.000     0.000     0.000     0.000     0.000     0.000 .00000E+00 .00000E+00 0.116E-05 0.359E+04 0.000E+00 0.000E+00 0.000E+00 0.000E+00 0.000E+00 0.131E-03     1.305     0.118     0.000
BERM   30 000050003    5    0    1.21713E+01    30.300     2.500    47.600     0.000     7.366     6.145   138.545   135.514    28.383    28.122     1.406     0.147     0.000     0.000  1017.738  2004.945    39.543    39.552     0.000     0.146    37.228    78.499    96.524    -1.153     1.381    -3.687    -3.429     2.783     0.019     0.009     0.000     0.000     0.000     0.000     0.000     0.000     0.000     0.000     0.000     0.000     4.904     0.195    -0.017     1.217     0.034     0.303     0.200     0.011     0.000     0.000     0.216     0.035     0.029     0.017     0.000     0.072     0.000     0.017     0.000     0.000     0.000     0.000     0.000     0.000     0.000     0.000 .00000E+00 .00000E+00 0.116E-05 0.359E+04 0.000E+00 0.000E+00 0.000E+00 0.000E+00 0.000E+00 0.211E-03     1.574     0.146     0.000
PAST   31 000050004    5    0    1.40317E+01    30.300     2.500    47.600     0.000     7.366     6.395   135.206   133.806    22.231    27.711     1.386     0.147     0.000     0.000  1016.866  2005.070    44.762    44.837     0.000     0.132    37.874    84.473    97.415    -1.153     1.381    -3.687    -3.391     2.783     0.097     0.037     0.000     0.000     0.000     0.000     0.000     0.000     0.000     0.000     0.000     0.000     2.216     0.189    -0.047     0.542     0.032     0.140     0.106     0.000     0.000     0.000     0.931     0.134     0.103     0.009     0.000     0.046     0.000     0.014     0.000     0.000     0.000     0.000     0.000     0.000     0.000     0.000 .00000E+00 .00000E+00 0.113E-05 0.359E+04 0.000E+00 0.000E+00 0.000E+00 0.000E+00 0.000E+00 0.112E-03     1.630     0.132     0.000
FRST   32 000060001    6    0    1.10076E+02    25.400     1.700    37.869     0.000     7.678     6.271   634.110   629.020    23.809    25.021     1.251     0.154     0.000     0.000  1017.435  2003.565    35.453    35.597     0.000     0.915    31.807    69.409    97.434    -1.127     1.306    -3.561    -3.118     2.774     0.005     0.002     0.000     0.000     0.000     0.000     0.000     0.000     0.000     0.000     0.000     0.000     0.557     0.184    -0.061     0.096     0.031     0.028     0.048     0.000     0.000     0.000     0.128     0.016     0.014     0.002     0.002     1.444     0.016     0.013     0.000     0.000     0.000     0.000     0.000     0.000     0.000     0.000 .00000E+00 .00000E+00 0.121E-05 0.404E+04 0.000E+00 0.000E+00 0.000E+00 0.000E+00 0.000E+00 0.187E-02     1.090     0.915     0.000
PAST   33 000060002    6    0    1.91731E+01    25.400     1.700    37.869     0.000     7.678     6.908   633.771   628.600    23.790    23.040     1.152     0.154     0.000     0.000  1015.960  2003.048    34.903    35.147     0.000     0.742    28.425    65.230    97.741    -1.127     1.306    -3.561    -3.137     2.774     0.071     0.032     0.000     0.000     0.000     0.000     0.000     0.000     0.000     0.000     0.000     0.000     3.178     0.191    -0.040     0.788     0.033     0.277     0.102     0.000     0.000     0.000     1.840     0.248     0.204     0.012     0.001     0.039     0.000     0.015     0.000     0.000     0.000     0.000     0.000     0.000     0.000     0.000 .00000E+00 .00000E+00 0.121E-05 0.404E+04 0.000E+00 0.000E+00 0.000E+00 0.000E+00 0.000E+00 0.116E-02     0.916     0.742     0.000
AGRR   34 000060003    6    0    1.14336E+02    25.400     1.700    37.869     0.000     7.678     6.058   633.393   628.834    21.778    18.001     0.900     0.154     0.000     0.000  1012.197  2002.138    37.118    37.557     0.000     0.621    20.502    59.302    98.295    -1.127     1.306    -3.561    -3.166     2.774     0.685     0.251     0.000     0.000     0.000     0.000     0.000     0.000     0.000     0.000     0.000     0.000     1.762     0.186    -0.044     0.378     0.032     0.115     0.122     0.000     0.000     0.000    13.317     1.772     1.364     0.024     0.001     0.051     0.000     0.012     0.000     0.000     0.000     0.000     0.000     0.000     0.000     0.000 .00000E+00 .00000E+00 0.128E-05 0.404E+04 0.000E+00 0.000E+00 0.000E+00 0.000E+00 0.000E+00 0.137E-02     0.622     0.621     0.000
FRST   35 000070001    7    0    1.68942E+01    25.400     1.700    37.869     0.000     7.670     6.265   634.112   629.012    23.768    24.911     1.246     0.153     0.000     0.000  1017.412  2003.538    35.454    35.629     0.000     1.050    31.632    69.393    97.433    -1.127     1.306    -3.561    -3.118     2.774     0.006     0.002     0.000     0.000     0.000     0.000     0.000     0.000     0.000     0.000     0.000     0.000     0.557     0.184    -0.061     0.096     0.031     0.028     0.048     0.000     0.000     0.000     0.147     0.018     0.016     0.002     0.002     1.456     0.016     0.013     0.000     0.000     0.000     0.000     0.000     0.000     0.000     0.000 .00000E+00 .00000E+00 0.121E-05 0.404E+04 0.000E+00 0.000E+00 0.000E+00 0.000E+00 0.000E+00 0.215E-02     1.081     1.050     0.000
BERM   36 000070002    7    0    1.22124E+01    25.400     1.700    37.869     0.000     7.670     6.616   634.023   628.748    24.526    22.538     1.127     0.153     0.000     0.000  1015.529  2002.856    34.498    34.524     0.000     0.903    27.127    63.402    97.449    -1.127     1.306    -3.561    -3.142     2.774     0.021     0.008     0.000     0.000     0.000     0.000     0.000     0.000     0.000     0.000     0.000     0.000     6.519     0.197    -0.007     1.626     0.034     0.576     0.185     0.000     0.000     0.000     0.574     0.084     0.075     0.029     0.003     0.047     0.000     0.016     0.000     0.000     0.000     0.000     0.000     0.000     0.000     0.000 .00000E+00 .00000E+00 0.126E-05 0.404E+04 0.000E+00 0.000E+00 0.000E+00 0.000E+00 0.000E+00 0.270E-02     0.848     0.903     0.000
AGRR   37 000070003    7    0    1.94398E+01    25.400     1.700    37.869     0.000     7.670     6.052   633.400   628.837    21.790    18.008     0.900     0.153     0.000     0.000  1012.213  2002.139    37.119    37.637     0.000     0.621    20.508    59.388    98.295    -1.127     1.306    -3.561    -3.166     2.774     0.644     0.264     0.000     0.000     0.000     0.000     0.000     0.000     0.000     0.000     0.000     0.000     1.768     0.186    -0.044     0.379     0.032     0.113     0.119     0.000     0.000     0.000    12.826     1.705     1.315     0.024     0.001     0.051     0.000     0.012     0.000     0.000     0.000     0.000     0.000     0.000     0.000     0.000 .00000E+00 .00000E+00 0.128E-05 0.404E+04 0.000E+00 0.000E+00 0.000E+00 0.000E+00 0.000E+00 0.137E-02     0.623     0.621     0.000
PAST   38 000070004    7    0    1.33754E+01    25.400     1.700    37.869     0.000     7.670     6.902   633.776   628.599    23.779    22.998     1.150     0.153     0.000     0.000  1016.112  2003.038    34.904    35.030     0.000     0.793    28.342    65.076    97.741    -1.127     1.306    -3.561    -3.137     2.774     0.071     0.029     0.000     0.000     0.000     0.000     0.000     0.000     0.000     0.000     0.000     0.000     3.177     0.191    -0.040     0.788     0.033     0.277     0.102     0.000     0.000     0.000     1.840     0.249     0.204     0.012     0.001     0.039     0.000     0.015     0.000     0.000     0.000     0.000     0.000     0.000     0.000     0.000 .00000E+00 .00000E+00 0.121E-05 0.404E+04 0.000E+00 0.000E+00 0.000E+00 0.000E+00 0.000E+00 0.124E-02     0.912     0.793     0.000
FRST   39 000080001    8    0    1.46596E+01    25.400     1.700    37.869     0.000     7.674     6.268   634.102   628.991    23.652    24.660     1.233     0.153     0.000     0.000  1017.242  2003.476    35.452    35.477     0.000     1.347    31.240    69.124    97.432    -1.127     1.306    -3.561    -3.118     2.774     0.009     0.002     0.000     0.000     0.000     0.000     0.000     0.000     0.000     0.000     0.000     0.000     0.557     0.184    -0.061     0.096     0.031     0.028     0.049     0.000     0.000     0.000     0.214     0.026     0.023     0.002     0.003     1.482     0.016     0.013     0.000     0.000     0.000     0.000     0.000     0.000     0.000     0.000 .00000E+00 .00000E+00 0.121E-05 0.404E+04 0.000E+00 0.000E+00 0.000E+00 0.000E+00 0.000E+00 0.278E-02     1.061     1.347     0.000
FRST   40 000080002    8    0    1.24177E+01    25.400     1.700    37.869     0.000     7.674     6.266   546.187   566.527     0.000     0.000     0.000     0.153     0.000     0.000   976.284  2000.000    18.285    18.285     0.000     5.520     0.000    23.805    91.655    -1.127     1.306    -3.561    -3.196     2.774     0.016     0.011     0.000     0.000     0.000     0.000     0.000     0.000     0.000     0.000     0.000     0.000     0.557     0.171    -0.056     0.096     0.029     0.017     0.049     0.000     0.000     0.000     0.314     0.039     0.033     0.000     0.009     0.000     0.000     0.006     0.000     0.000     0.000     0.000     0.000     0.000     0.000     0.000 .00000E+00 .00000E+00 0.121E-05 0.404E+04 0.000E+00 0.000E+00 0.000E+00 0.000E+00 0.000E+00 0.883E-02     0.000     5.520     0.000
FRST   41 000080003    8    0    1.13799E+01    25.400     1.700    37.869     0.000     7.674     6.415    35.513    29.991    25.675    26.848     1.342     0.153     0.000     0.000  1015.891  2005.201    34.328    34.329     0.000     0.796    35.296    72.088    96.961    -1.127     1.306    -3.561    -1.974     2.774     0.001     0.001     0.000     0.000     0.000     0.000     0.000     0.000     0.000     0.000     0.000     0.000     0.480     0.460    -0.145     0.085     0.079     0.069     0.059     0.145     0.000     0.000     0.012     0.002     0.001     0.001     0.001     0.095     0.001     0.007     0.000     0.000     0.000     0.000     0.000     0.000     0.000     0.000 .00000E+00 .00000E+00 0.124E-05 0.338E+04 0.000E+00 0.000E+00 0.000E+00 0.000E+00 0.000E+00 0.815E-03     1.667     0.796     0.000
FRST   42 000080004    8    0    1.24912E+01    25.400     1.700    37.869     0.000     7.674     6.406    35.268    29.612    21.028    20.209     1.010     0.153     0.000     0.000  1012.615  2003.662    34.303    34.303     0.000     3.403    25.746    64.610    96.920    -1.127     1.306    -3.561    -1.970     2.774     0.004     0.002     0.000     0.000     0.000     0.000     0.000     0.000     0.000     0.000     0.000     0.000     0.714     0.460    -0.144     0.089     0.079     0.074     0.062     0.069     0.000     0.000     0.036     0.004     0.003     0.002     0.011     0.181     0.001     0.007     0.000     0.000     0.000     0.000     0.000     0.000     0.000     0.000 .00000E+00 .00000E+00 0.123E-05 0.338E+04 0.000E+00 0.000E+00 0.000E+00 0.000E+00 0.000E+00 0.110E-01     1.159     3.403     0.000
BERM   43 000080005    8    0    1.52265E+01    25.400     1.700    37.869     0.000     7.674     6.619   634.021   628.749    24.532    22.567     1.128     0.153     0.000     0.000  1015.578  2002.862    34.497    34.543     0.000     0.878    27.172    63.442    97.449    -1.127     1.306    -3.561    -3.142     2.774     0.022     0.007     0.000     0.000     0.000     0.000     0.000     0.000     0.000     0.000     0.000     0.000     6.519     0.197    -0.007     1.626     0.034     0.576     0.185     0.000     0.000     0.000     0.602     0.088     0.078     0.028     0.003     0.047     0.000     0.016     0.000     0.000     0.000     0.000     0.000     0.000     0.000     0.000 .00000E+00 .00000E+00 0.126E-05 0.404E+04 0.000E+00 0.000E+00 0.000E+00 0.000E+00 0.000E+00 0.262E-02     0.850     0.878     0.000
PAST   44 000080006    8    0    1.11671E+02    25.400     1.700    37.869     0.000     7.674     6.904   633.777   628.607    23.827    23.116     1.156     0.153     0.000     0.000  1015.906  2003.065    34.904    35.270     0.000     0.666    28.555    65.413    97.741    -1.127     1.306    -3.561    -3.137     2.774     0.063     0.025     0.000     0.000     0.000     0.000     0.000     0.000     0.000     0.000     0.000     0.000     3.184     0.191    -0.040     0.789     0.033     0.277     0.102     0.000     0.000     0.000     1.613     0.218     0.179     0.012     0.001     0.039     0.000     0.015     0.000     0.000     0.000     0.000     0.000     0.000     0.000     0.000 .00000E+00 .00000E+00 0.121E-05 0.404E+04 0.000E+00 0.000E+00 0.000E+00 0.000E+00 0.000E+00 0.104E-02     0.921     0.666     0.000
AGRR   45 000080007    8    0    1.13645E+02    25.400     1.700    37.869     0.000     7.674     6.055   633.398   628.839    21.803    18.055     0.903     0.153     0.000     0.000  1012.333  2002.149    37.119    37.546     0.000     0.575    20.574    59.322    98.295    -1.127     1.306    -3.561    -3.166     2.774     0.621     0.261     0.000     0.000     0.000     0.000     0.000     0.000     0.000     0.000     0.000     0.000     1.770     0.186    -0.044     0.380     0.032     0.112     0.118     0.000     0.000     0.000    12.530     1.666     1.285     0.024     0.001     0.051     0.000     0.012     0.000     0.000     0.000     0.000     0.000     0.000     0.000     0.000 .00000E+00 .00000E+00 0.128E-05 0.404E+04 0.000E+00 0.000E+00 0.000E+00 0.000E+00 0.000E+00 0.128E-02     0.626     0.575     0.000
AGRR   46 000080008    8    0    1.48609E+01    25.400     1.700    37.869     0.000     7.674     6.017    35.025    30.080    23.679    21.693     1.085     0.153     0.000     0.000  1013.299  2004.015    36.187    36.287     0.000     0.245    27.641    65.449    98.225    -1.127     1.306    -3.561    -1.983     2.774     0.061     0.028     0.000     0.000     0.000     0.000     0.000     0.000     0.000     0.000     0.000     0.000     2.128     0.459    -0.120     0.425     0.079     0.155     0.102     0.087     0.000     0.000     0.675     0.090     0.049     0.024     0.001     0.067     0.000     0.009     0.000     0.000     0.000     0.000     0.000     0.000     0.000     0.000 .00000E+00 .00000E+00 0.181E-05 0.338E+04 0.000E+00 0.000E+00 0.000E+00 0.000E+00 0.000E+00 0.537E-03     1.275     0.245     0.000
PAST   47 000090001    9    0    1.66712E+01    30.300     2.500    47.599     0.000     7.367     6.395   135.207   133.808    22.236    27.722     1.386     0.147     0.000     0.000  1016.871  2005.073    44.762    44.959     0.000     0.125    37.891    84.606    97.415    -1.153     1.381    -3.687    -3.391     2.783     0.090     0.036     0.000     0.000     0.000     0.000     0.000     0.000     0.000     0.000     0.000     0.000     2.217     0.189    -0.047     0.542     0.032     0.140     0.106     0.000     0.000     0.000     0.888     0.128     0.098     0.009     0.000     0.046     0.000     0.014     0.000     0.000     0.000     0.000     0.000     0.000     0.000     0.000 .00000E+00 .00000E+00 0.113E-05 0.359E+04 0.000E+00 0.000E+00 0.000E+00 0.000E+00 0.000E+00 0.106E-03     1.631     0.125     0.000
AGRR   48 000090002    9    0    1.18421E+01    30.300     2.500    47.599     0.000     7.367     5.750   633.966   629.538    25.050    20.266     1.013     0.147     0.000     0.000  1014.060  2002.666    47.515    47.565     0.000     0.697    24.014    73.070    98.308    -1.153     1.381    -3.687    -3.318     2.783     1.023     0.379     0.000     0.000     0.000     0.000     0.000     0.000     0.000     0.000     0.000     0.000     1.707     0.179    -0.043     0.368     0.031     0.107     0.120     0.000     0.000     0.000    16.861     2.246     1.722     0.029     0.002     0.026     0.000     0.014     0.000     0.000     0.000     0.000     0.000     0.000     0.000     0.000 .00000E+00 .00000E+00 0.117E-05 0.404E+04 0.000E+00 0.000E+00 0.000E+00 0.000E+00 0.000E+00 0.158E-02     0.795     0.697     0.000
AGRR   49 000090003    9    0    1.51680E+01    30.300     2.500    47.599     0.000     7.367     5.608   134.254   133.760    20.488    23.987     1.199     0.147     0.000     0.000  1015.764  2004.101    46.335    46.457     0.000     0.118    32.011    79.892    98.006    -1.153     1.381    -3.687    -3.408     2.783     0.696     0.252     0.000     0.000     0.000     0.000     0.000     0.000     0.000     0.000     0.000     0.000     1.741     0.189    -0.046     0.376     0.032     0.109     0.116     0.000     0.000     0.000     6.007     0.859     0.557     0.024     0.000     0.029     0.000     0.010     0.000     0.000     0.000     0.000     0.000     0.000     0.000     0.000 .00000E+00 .00000E+00 0.116E-05 0.359E+04 0.000E+00 0.000E+00 0.000E+00 0.000E+00 0.000E+00 0.131E-03     1.306     0.118     0.000
FRST   50 000090004    9    0    1.39406E+01    30.300     2.500    47.599     0.000     7.367     5.764   139.992   136.447    31.978    30.358     1.518     0.147     0.000     0.000  1018.669  2005.499    36.457    36.485     0.000     0.141    40.088    78.469    96.060    -1.153     1.381    -3.687    -3.383     2.783     0.003     0.001     0.000     0.000     0.000     0.000     0.000     0.000     0.000     0.000     0.000     0.000     0.531     0.186    -0.064     0.097     0.032     0.028     0.074     0.054     0.000     0.000     0.027     0.003     0.003     0.001     0.000     0.123     0.001     0.008     0.000     0.000     0.000     0.000     0.000     0.000     0.000     0.000 .00000E+00 .00000E+00 0.111E-05 0.359E+04 0.000E+00 0.000E+00 0.000E+00 0.000E+00 0.000E+00 0.161E-03     1.755     0.141     0.000
AGRR   51 000100001   10    0    1.27549E+01    27.700     2.000    44.634     0.000     6.786     5.244   134.036   134.296    17.751    23.035     1.152     0.136     0.000     0.000  1014.988  2004.018    43.449    43.508     0.000     0.114    31.327    76.234    98.145    -1.202     1.381    -3.784    -3.437     2.770     0.328     0.228     0.000     0.000     0.000     0.000     0.000     0.000     0.000     0.000     0.000     0.000     1.458     0.187    -0.049     0.318     0.032     0.108     0.115     0.000     0.000     0.000     2.697     0.386     0.251     0.022     0.000     0.025     0.000     0.010     0.000     0.000     0.000     0.000     0.000     0.000     0.000     0.000 .00000E+00 .00000E+00 0.114E-05 0.359E+04 0.000E+00 0.000E+00 0.000E+00 0.000E+00 0.000E+00 0.122E-03     1.286     0.114     0.000
AGRR   52 000100002   10    0    1.22154E+01    27.700     2.000    44.634     0.000     6.786     5.370   633.674   629.615    23.755    20.113     1.006     0.136     0.000     0.000  1013.832  2002.692    43.835    44.054     0.000     0.326    24.219    69.406    98.306    -1.202     1.381    -3.784    -3.349     2.770     0.284     0.223     0.000     0.000     0.000     0.000     0.000     0.000     0.000     0.000     0.000     0.000     1.755     0.179    -0.042     0.382     0.031     0.144     0.112     0.000     0.000     0.000     5.563     0.738     0.573     0.028     0.001     0.024     0.000     0.015     0.000     0.000     0.000     0.000     0.000     0.000     0.000     0.000 .00000E+00 .00000E+00 0.115E-05 0.404E+04 0.000E+00 0.000E+00 0.000E+00 0.000E+00 0.000E+00 0.107E-02     0.808     0.326     0.000
FRST   53 000100003   10    0    1.40471E+01    27.700     2.000    44.634     0.000     6.786     5.385   139.557   136.091    30.091    29.275     1.464     0.136     0.000     0.000  1017.851  2005.362    33.701    33.729     0.000     0.148    38.912    74.504    96.044    -1.202     1.381    -3.784    -3.414     2.770     0.002     0.001     0.000     0.000     0.000     0.000     0.000     0.000     0.000     0.000     0.000     0.000     0.532     0.186    -0.064     0.097     0.032     0.031     0.075     0.040     0.000     0.000     0.012     0.002     0.001     0.001     0.000     0.126     0.001     0.007     0.000     0.000     0.000     0.000     0.000     0.000     0.000     0.000 .00000E+00 .00000E+00 0.109E-05 0.359E+04 0.000E+00 0.000E+00 0.000E+00 0.000E+00 0.000E+00 0.183E-03     1.715     0.148     0.000
PAST   54 000100004   10    0    1.12336E+01    27.700     2.000    44.634     0.000     6.786     5.998   134.792   133.488    20.982    26.883     1.344     0.136     0.000     0.000  1016.351  2004.950    41.342    41.385     0.000     0.114    36.887    79.978    97.404    -1.202     1.381    -3.784    -3.410     2.770     0.033     0.025     0.000     0.000     0.000     0.000     0.000     0.000     0.000     0.000     0.000     0.000     2.233     0.189    -0.047     0.546     0.032     0.143     0.108     0.000     0.000     0.000     0.288     0.041     0.032     0.008     0.000     0.043     0.000     0.013     0.000     0.000     0.000     0.000     0.000     0.000     0.000     0.000 .00000E+00 .00000E+00 0.111E-05 0.359E+04 0.000E+00 0.000E+00 0.000E+00 0.000E+00 0.000E+00 0.953E-04     1.593     0.114     0.000
PAST   55 000100005   10    0    1.27784E+01    27.700     2.000    44.634     0.000     6.786     6.110   633.976   629.542    24.754    24.305     1.215     0.136     0.000     0.000  1016.739  2003.652    42.579    42.901     0.000     0.322    31.139    75.488    97.914    -1.202     1.381    -3.784    -3.334     2.770     0.022     0.017     0.000     0.000     0.000     0.000     0.000     0.000     0.000     0.000     0.000     0.000     2.712     0.180    -0.041     0.671     0.031     0.229     0.086     0.000     0.000     0.000     0.502     0.068     0.056     0.018     0.001     0.041     0.000     0.018     0.000     0.000     0.000     0.000     0.000     0.000     0.000     0.000 .00000E+00 .00000E+00 0.109E-05 0.404E+04 0.000E+00 0.000E+00 0.000E+00 0.000E+00 0.000E+00 0.704E-03     1.126     0.322     0.000
AGRR   56 000110001   11    0    1.21004E+02    27.700     2.000    44.633     0.000     6.798     5.380   633.656   629.593    23.642    19.857     0.993     0.136     0.000     0.000  1013.801  2002.639    43.833    44.407     0.000     0.548    23.812    69.557    98.306    -1.202     1.381    -3.784    -3.349     2.770     0.424     0.231     0.000     0.000     0.000     0.000     0.000     0.000     0.000     0.000     0.000     0.000     1.726     0.179    -0.043     0.376     0.031     0.154     0.127     0.000     0.000     0.000     8.323     1.108     0.854     0.028     0.001     0.024     0.000     0.014     0.000     0.000     0.000     0.000     0.000     0.000     0.000     0.000 .00000E+00 .00000E+00 0.117E-05 0.404E+04 0.000E+00 0.000E+00 0.000E+00 0.000E+00 0.000E+00 0.128E-02     0.790     0.548     0.000
BERM   57 000110002   11    0    1.91647E+01    27.700     2.000    44.633     0.000     6.798     5.862   634.224   629.655    25.614    24.104     1.205     0.136     0.000     0.000  1016.856  2003.459    41.907    41.996     0.000     0.751    30.381    74.184    97.671    -1.202     1.381    -3.784    -3.358     2.770     0.013     0.009     0.000     0.000     0.000     0.000     0.000     0.000     0.000     0.000     0.000     0.000     5.484     0.185    -0.013     1.367     0.032     0.483     0.156     0.000     0.000     0.000     0.294     0.043     0.038     0.032     0.002     0.048     0.000     0.019     0.000     0.000     0.000     0.000     0.000     0.000     0.000     0.000 .00000E+00 .00000E+00 0.114E-05 0.404E+04 0.000E+00 0.000E+00 0.000E+00 0.000E+00 0.000E+00 0.198E-02     1.056     0.751     0.000
PAST   58 000110003   11    0    1.17080E+02    27.700     2.000    44.633     0.000     6.798     6.120   633.960   629.519    24.639    24.089     1.204     0.136     0.000     0.000  1016.703  2003.596    42.577    43.075     0.000     0.561    30.803    75.547    97.913    -1.202     1.381    -3.784    -3.334     2.770     0.034     0.022     0.000     0.000     0.000     0.000     0.000     0.000     0.000     0.000     0.000     0.000     2.701     0.180    -0.041     0.668     0.031     0.229     0.086     0.000     0.000     0.000     0.806     0.109     0.090     0.018     0.001     0.040     0.000     0.018     0.000     0.000     0.000     0.000     0.000     0.000     0.000     0.000 .00000E+00 .00000E+00 0.109E-05 0.404E+04 0.000E+00 0.000E+00 0.000E+00 0.000E+00 0.000E+00 0.775E-03     1.108     0.561     0.000
FRST   59 000110004   11    0    1.38116E+01    27.700     2.000    44.633     0.000     6.798     5.392   139.545   136.076    30.060    29.241     1.462     0.136     0.000     0.000  1017.828  2005.355    33.700    33.709     0.000     0.176    38.864    74.463    96.043    -1.202     1.381    -3.784    -3.414     2.770     0.002     0.002     0.000     0.000     0.000     0.000     0.000     0.000     0.000     0.000     0.000     0.000     0.532     0.186    -0.064     0.097     0.032     0.031     0.075     0.040     0.000     0.000     0.015     0.002     0.001     0.001     0.000     0.126     0.001     0.007     0.000     0.000     0.000     0.000     0.000     0.000     0.000     0.000 .00000E+00 .00000E+00 0.109E-05 0.359E+04 0.000E+00 0.000E+00 0.000E+00 0.000E+00 0.000E+00 0.218E-03     1.713     0.176     0.000
FRST   60 000110005   11    0    1.56369E+01    27.700     2.000    44.633     0.000     6.798     5.525   634.398   629.890    25.818    25.595     1.280     0.136     0.000     0.000  1016.770  2004.040    41.777    41.801     0.000     1.349    33.065    77.472    97.467    -1.202     1.381    -3.784    -3.307     2.770     0.006     0.004     0.000     0.000     0.000     0.000     0.000     0.000     0.000     0.000     0.000     0.000     0.546     0.176    -0.060     0.097     0.030     0.022     0.047     0.000     0.000     0.000     0.114     0.014     0.012     0.003     0.002     1.165     0.013     0.015     0.000     0.000     0.000     0.000     0.000     0.000     0.000     0.000 .00000E+00 .00000E+00 0.109E-05 0.404E+04 0.000E+00 0.000E+00 0.000E+00 0.000E+00 0.000E+00 0.240E-02     1.257     1.349     0.000
FRST   61 000110006   11    0    1.25885E+01    27.700     2.000    44.633     0.000     6.798     5.524   599.251   616.536     0.000     0.000     0.000     0.136     0.000     0.000   977.039  2000.000    33.401    33.401     0.000     5.097     0.000    38.498    95.752    -1.202     1.381    -3.784    -3.342     2.770     0.013     0.014     0.000     0.000     0.000     0.000     0.000     0.000     0.000     0.000     0.000     0.000     0.546     0.174    -0.058     0.097     0.030     0.024     0.054     0.000     0.000     0.000     0.224     0.028     0.024     0.001     0.008     0.000     0.000     0.011     0.000     0.000     0.000     0.000     0.000     0.000     0.000     0.000 .00000E+00 .00000E+00 0.109E-05 0.404E+04 0.000E+00 0.000E+00 0.000E+00 0.000E+00 0.000E+00 0.815E-02     0.000     5.097     0.000
FRST   62 000120001   12    0    1.27673E+01    30.300     2.500    47.600     0.000     7.363     5.911   634.689   629.819    27.124    25.805     1.290     0.147     0.000     0.000  1017.883  2003.975    45.203    45.204     0.000     1.907    32.922    81.263    97.478    -1.153     1.381    -3.687    -3.275     2.783     0.012     0.004     0.000     0.000     0.000     0.000     0.000     0.000     0.000     0.000     0.000     0.000     0.550     0.177    -0.060     0.097     0.030     0.019     0.046     0.000     0.000     0.000     0.245     0.030     0.026     0.003     0.003     1.269     0.013     0.016     0.000     0.000     0.000     0.000     0.000     0.000     0.000     0.000 .00000E+00 .00000E+00 0.111E-05 0.404E+04 0.000E+00 0.000E+00 0.000E+00 0.000E+00 0.000E+00 0.343E-02     1.230     1.907     0.000
FRST   63 000120002   12    0    1.24598E+01    30.300     2.500    47.600     0.000     7.363     5.911   592.536   611.993     0.000     0.000     0.000     0.147     0.000     0.000   976.783  2000.000    34.311    34.312     0.000     5.600     0.000    39.912    95.325    -1.153     1.381    -3.687    -3.316     2.783     0.032     0.014     0.000     0.000     0.000     0.000     0.000     0.000     0.000     0.000     0.000     0.000     0.550     0.174    -0.057     0.097     0.030     0.019     0.052     0.000     0.000     0.000     0.622     0.077     0.066     0.001     0.009     0.000     0.000     0.012     0.000     0.000     0.000     0.000     0.000     0.000     0.000     0.000 .00000E+00 .00000E+00 0.111E-05 0.404E+04 0.000E+00 0.000E+00 0.000E+00 0.000E+00 0.000E+00 0.866E-02     0.000     5.600     0.000
FRST   64 000120003   12    0    1.35295E+01    30.300     2.500    47.600     0.000     7.363     6.091    35.999    30.662    30.277    28.603     1.430     0.147     0.000     0.000  1016.279  2005.738    43.464    43.465     0.000     0.753    37.400    83.462    97.241    -1.153     1.381    -3.687    -2.132     2.783     0.002     0.001     0.000     0.000     0.000     0.000     0.000     0.000     0.000     0.000     0.000     0.000     0.388     0.458    -0.146     0.073     0.079     0.060     0.053     0.150     0.000     0.000     0.016     0.002     0.001     0.002     0.001     0.085     0.000     0.009     0.000     0.000     0.000     0.000     0.000     0.000     0.000     0.000 .00000E+00 .00000E+00 0.115E-05 0.338E+04 0.000E+00 0.000E+00 0.000E+00 0.000E+00 0.000E+00 0.602E-03     1.844     0.753     0.000
FRST   65 000120004   12    0    1.27760E+01    30.300     2.500    47.600     0.000     7.363     6.063    35.721    30.208    25.063    21.510     1.076     0.147     0.000     0.000  1012.588  2004.033    43.414    43.414     0.000     3.674    27.128    75.495    97.198    -1.153     1.381    -3.687    -2.125     2.783     0.006     0.002     0.000     0.000     0.000     0.000     0.000     0.000     0.000     0.000     0.000     0.000     0.550     0.458    -0.145     0.079     0.078     0.065     0.057     0.113     0.000     0.000     0.046     0.006     0.003     0.002     0.009     0.121     0.001     0.009     0.000     0.000     0.000     0.000     0.000     0.000     0.000     0.000 .00000E+00 .00000E+00 0.114E-05 0.338E+04 0.000E+00 0.000E+00 0.000E+00 0.000E+00 0.000E+00 0.892E-02     1.280     3.674     0.000
BERM   66 000120005   12    0    1.42536E+01    30.300     2.500    47.600     0.000     7.363     6.209    35.911    30.559    30.156    27.321     1.366     0.147     0.000     0.000  1016.007  2005.323    43.767    43.778     0.000     0.448    35.205    81.133    97.471    -1.153     1.381    -3.687    -2.193     2.783     0.005     0.002     0.000     0.000     0.000     0.000     0.000     0.000     0.000     0.000     0.000     0.000     5.627     0.463    -0.088     1.404     0.079     0.372     0.191     0.125     0.000     0.000     0.053     0.008     0.005     0.031     0.001     0.072     0.000     0.016     0.000     0.000     0.000     0.000     0.000     0.000     0.000     0.000 .00000E+00 .00000E+00 0.121E-05 0.338E+04 0.000E+00 0.000E+00 0.000E+00 0.000E+00 0.000E+00 0.104E-02     1.702     0.448     0.000
PAST   67 000120006   12    0    1.11472E+02    30.300     2.500    47.600     0.000     7.363     6.502    35.658    30.426    29.166    26.943     1.347     0.147     0.000     0.000  1015.717  2005.277    44.388    44.521     0.000     0.370    34.903    81.483    97.764    -1.153     1.381    -3.687    -2.181     2.783     0.033     0.011     0.000     0.000     0.000     0.000     0.000     0.000     0.000     0.000     0.000     0.000     1.994     0.448    -0.125     0.478     0.077     0.149     0.087     0.112     0.000     0.000     0.310     0.042     0.025     0.011     0.000     0.061     0.000     0.012     0.000     0.000     0.000     0.000     0.000     0.000     0.000     0.000 .00000E+00 .00000E+00 0.119E-05 0.338E+04 0.000E+00 0.000E+00 0.000E+00 0.000E+00 0.000E+00 0.361E-03     1.689     0.370     0.000
AGRR   68 000120007   12    0    1.33295E+01    30.300     2.500    47.600     0.000     7.363     5.749   633.963   629.523    24.978    20.073     1.004     0.147     0.000     0.000  1014.076  2002.624    47.514    47.544     0.000     0.886    23.695    72.906    98.308    -1.153     1.381    -3.687    -3.318     2.783     1.545     0.580     0.000     0.000     0.000     0.000     0.000     0.000     0.000     0.000     0.000     0.000     1.660     0.178    -0.045     0.359     0.031     0.111     0.137     0.000     0.000     0.000    21.212     2.839     2.151     0.028     0.002     0.025     0.000     0.013     0.000     0.000     0.000     0.000     0.000     0.000     0.000     0.000 .00000E+00 .00000E+00 0.116E-05 0.404E+04 0.000E+00 0.000E+00 0.000E+00 0.000E+00 0.000E+00 0.202E-02     0.781     0.886     0.000
AGRR   69 000120008   12    0    1.56982E+01    30.300     2.500    47.600     0.000     7.363     5.732    35.313    30.551    27.488    23.041     1.152     0.147     0.000     0.000  1013.446  2004.347    46.203    46.250     0.000     0.350    28.955    76.936    98.238    -1.153     1.381    -3.687    -2.125     2.783     0.152     0.057     0.000     0.000     0.000     0.000     0.000     0.000     0.000     0.000     0.000     0.000     2.088     0.459    -0.122     0.416     0.079     0.148     0.096     0.063     0.000     0.000     1.425     0.191     0.102     0.031     0.001     0.044     0.000     0.011     0.000     0.000     0.000     0.000     0.000     0.000     0.000     0.000 .00000E+00 .00000E+00 0.137E-05 0.338E+04 0.000E+00 0.316E+04 0.107E+06 0.000E+00 0.000E+00 0.654E-03     1.381     0.350     0.000
FRST    1 000010001    1    0    2.32051E+00   126.800    11.200    11.197     0.000    17.591    13.336   632.433   636.311    73.386    39.810     1.990     0.352     0.000     0.000  1026.077  2004.689    26.792    26.792     0.000     3.056    28.950    59.968    91.524     4.580     7.546     1.614     4.026     4.740     0.017     0.012     0.000     0.000     0.000     0.000     0.000     0.000     0.000     0.000     0.000     0.000     2.170     0.380    -0.111     0.382     0.065     0.180     0.121     0.000     0.000     0.000     0.212     0.026     0.023     0.024     0.013     3.135     0.014     0.011     0.000     0.000     0.000     0.000     0.000     0.000     0.000     0.000 .00000E+00 .00000E+00 0.000E+00 0.404E+04 0.000E+00 0.000E+00 0.000E+00 0.000E+00 0.000E+00 0.130E-01     1.170     3.056     0.000
FRST    2 000010002    1    0    2.44173E+00   126.800    11.200    11.197     0.000    17.591    13.330   619.854   632.793    21.081     3.065     0.153     0.352     0.000     0.000   979.345  2000.148    21.314    21.314     0.000    30.931     0.000    52.251    89.179     4.580     7.546     1.614     4.016     4.740     0.037     0.036     0.000     0.000     0.000     0.000     0.000     0.000     0.000     0.000     0.000     0.000     2.170     0.379    -0.108     0.382     0.065     0.241     0.154     0.000     0.000     0.000     0.446     0.055     0.048     0.025     0.159     2.842     0.000     0.008     0.000     0.000     0.000     0.000     0.000     0.000     0.000     0.000 .00000E+00 .00000E+00 0.000E+00 0.404E+04 0.000E+00 0.000E+00 0.000E+00 0.000E+00 0.000E+00 0.159E+00     0.006    30.931     0.000
FRST    3 000010003    1    0    2.57310E+00   126.800    11.200    11.197     0.000    17.591    11.487   137.505   143.513    91.702    51.353     2.568     0.352     0.000     0.000  1030.627  2006.420    16.035    16.035     0.000     0.268    36.464    54.408    88.390     4.580     7.546     1.614     3.926     4.740     0.003     0.004     0.000     0.000     0.000     0.000     0.000     0.000     0.000     0.000     0.000     0.000     2.095     0.358    -0.102     0.382     0.061     0.180     0.164     0.167     0.000     0.000     0.016     0.002     0.002     0.012     0.001     0.495     0.002     0.004     0.000     0.000     0.000     0.000     0.000     0.000     0.000     0.000 .00000E+00 .00000E+00 0.000E+00 0.359E+04 0.000E+00 0.000E+00 0.000E+00 0.000E+00 0.000E+00 0.713E-03     1.640     0.268     0.000
BERM    4 000010004    1    0    2.24968E+01   126.800    11.200    11.197     0.000    17.591    14.054   631.947   636.122    68.703    38.386     1.919     0.352     0.000     0.000  1025.240  2004.351    35.083    35.075     0.000     1.102    28.107    65.359    92.477     4.580     7.546     1.614     4.004     4.740     0.084     0.057     0.000     0.000     0.000     0.000     0.000     0.000     0.000     0.000     0.000     0.000    19.458     0.426     0.134     4.854     0.074     3.091     1.560     0.000     0.000     0.000     1.279     0.182     0.182     0.378     0.024     0.902     0.001     0.039     0.000     0.000     0.000     0.000     0.000     0.000     0.000     0.000 .00000E+00 .00000E+00 0.000E+00 0.404E+04 0.000E+00 0.000E+00 0.000E+00 0.000E+00 0.000E+00 0.242E-01     1.076     1.102     0.000
PAST    5 000010005    1    0    2.28604E+01   126.800    11.200    11.197     0.000    17.591    14.489   631.709   636.074    66.592    37.407     1.870     0.352     0.000     0.000  1024.347  2004.413    37.296    37.288     0.000     0.834    27.762    66.990    93.814     4.580     7.546     1.614     3.994     4.740     0.256     0.145     0.000     0.000     0.000     0.000     0.000     0.000     0.000     0.000     0.000     0.000     9.548     0.398    -0.013     2.360     0.068     1.484     0.794     0.000     0.000     0.000     3.870     0.513     0.451     0.198     0.009     0.485     0.001     0.029     0.000     0.000     0.000     0.000     0.000     0.000     0.000     0.000 .00000E+00 .00000E+00 0.000E+00 0.404E+04 0.000E+00 0.000E+00 0.000E+00 0.000E+00 0.000E+00 0.922E-02     1.105     0.834     0.000
PAST    6 000010006    1    0    2.12338E+01   126.800    11.200    11.197     0.000    17.591    12.475   135.791   142.133    80.121    42.413     2.121     0.352     0.000     0.000  1025.621  2005.714    25.557    25.556     0.000     0.169    31.196    58.401    91.495     4.580     7.546     1.614     3.910     4.740     0.126     0.108     0.000     0.000     0.000     0.000     0.000     0.000     0.000     0.000     0.000     0.000     7.927     0.375    -0.014     1.939     0.064     1.175     0.830     0.115     0.000     0.000     0.774     0.108     0.092     0.096     0.001     0.603     0.001     0.016     0.000     0.000     0.000     0.000     0.000     0.000     0.000     0.000 .00000E+00 .00000E+00 0.000E+00 0.359E+04 0.000E+00 0.000E+00 0.000E+00 0.000E+00 0.000E+00 0.135E-02     1.481     0.169     0.000
AGRR    7 000010007    1    0    2.28941E+01   126.800    11.200    11.197     0.000    17.591    13.034   631.084   635.228    54.539    32.304     1.615     0.352     0.000     0.000  1020.794  2003.422    51.766    51.731     0.000     0.845    23.397    76.806    95.945     4.580     7.546     1.614     4.022     4.740     2.229     0.874     0.000     0.000     0.000     0.000     0.000     0.000     0.000     0.000     0.000     0.000     6.456     0.389    -0.036     1.394     0.067     0.936     0.568     0.000     0.000     0.000    20.646     2.729     2.183     0.283     0.007     0.221     0.000     0.025     0.000     0.000     0.000     0.000     0.000     0.000     0.000     0.000 .00000E+00 .00000E+00 0.000E+00 0.404E+04 0.000E+00 0.000E+00 0.000E+00 0.000E+00 0.000E+00 0.725E-02     0.833     0.845     0.000
AGRR    8 000010008    1    0    2.11196E+01   126.800    11.200    11.197     0.000    17.591    11.240   134.607   140.484    69.391    37.794     1.890     0.352     0.000     0.000  1023.890  2004.774    39.181    39.176     0.000     0.145    27.437    67.979    94.307     4.580     7.546     1.614     3.928     4.740     0.663     0.339     0.000     0.000     0.000     0.000     0.000     0.000     0.000     0.000     0.000     0.000     6.924     0.375    -0.009     1.492     0.064     0.907     0.674     0.000     0.000     0.000     3.899     0.546     0.388     0.181     0.001     0.375     0.000     0.018     0.000     0.000     0.000     0.000     0.000     0.000     0.000     0.000 .00000E+00 .00000E+00 0.000E+00 0.359E+04 0.000E+00 0.000E+00 0.000E+00 0.000E+00 0.000E+00 0.105E-02     1.220     0.145     0.000
AGRR    9 000020001    2    0    2.26080E+01   118.900    10.700    10.700     0.000    16.960    11.053   134.451   139.947    67.584    35.938     1.797     0.339     0.000     0.000  1022.652  2004.618    34.199    34.197     0.000     0.216    26.107    61.705    94.302     4.630     7.596     1.664     3.925     4.671     0.710     0.562     0.000     0.000     0.000     0.000     0.000     0.000     0.000     0.000     0.000     0.000     6.894     0.372    -0.017     1.504     0.064     0.892     0.666     0.000     0.000     0.000     3.638     0.516     0.358     0.168     0.002     0.332     0.000     0.015     0.000     0.000     0.000     0.000     0.000     0.000     0.000     0.000 .00000E+00 .00000E+00 0.000E+00 0.359E+04 0.000E+00 0.000E+00 0.000E+00 0.000E+00 0.000E+00 0.150E-02     1.185     0.216     0.000
AGRR   10 000020002    2    0    2.18377E+01   118.900    10.700    10.700     0.000    16.960    12.729   631.154   634.967    53.310    31.259     1.563     0.339     0.000     0.000  1020.233  2003.360    46.123    46.106     0.000     0.659    22.757    70.343    95.950     4.630     7.596     1.664     4.018     4.671     0.912     0.520     0.000     0.000     0.000     0.000     0.000     0.000     0.000     0.000     0.000     0.000     6.718     0.392    -0.029     1.466     0.067     0.916     0.557     0.000     0.000     0.000    10.933     1.442     1.159     0.284     0.006     0.215     0.000     0.024     0.000     0.000     0.000     0.000     0.000     0.000     0.000     0.000 .00000E+00 .00000E+00 0.000E+00 0.404E+04 0.000E+00 0.000E+00 0.000E+00 0.000E+00 0.000E+00 0.592E-02     0.821     0.659     0.000
BERM   11 000020003    2    0    2.89816E+00   118.900    10.700    10.700     0.000    16.960    11.953   135.893   141.724    79.488    44.409     2.220     0.339     0.000     0.000  1026.864  2005.598    20.508    20.505     0.000     0.241    31.989    54.168    89.314     4.630     7.596     1.664     3.915     4.671     0.017     0.027     0.000     0.000     0.000     0.000     0.000     0.000     0.000     0.000     0.000     0.000    17.697     0.405     0.142     4.390     0.070     2.660     1.727     0.102     0.000     0.000     0.123     0.020     0.018     0.224     0.004     1.092     0.001     0.022     0.000     0.000     0.000     0.000     0.000     0.000     0.000     0.000 .00000E+00 .00000E+00 0.000E+00 0.359E+04 0.000E+00 0.000E+00 0.000E+00 0.000E+00 0.000E+00 0.397E-02     1.433     0.241     0.000
BERM   12 000020004    2    0    2.74586E+00   118.900    10.700    10.700     0.000    16.960    13.721   631.954   635.807    66.358    36.756     1.838     0.339     0.000     0.000  1024.226  2004.212    30.487    30.484     0.000     0.987    27.045    59.560    92.482     4.630     7.596     1.664     4.004     4.671     0.034     0.039     0.000     0.000     0.000     0.000     0.000     0.000     0.000     0.000     0.000     0.000    19.647     0.427     0.135     4.899     0.074     3.123     1.573     0.000     0.000     0.000     0.518     0.074     0.073     0.358     0.022     0.846     0.001     0.034     0.000     0.000     0.000     0.000     0.000     0.000     0.000     0.000 .00000E+00 .00000E+00 0.000E+00 0.404E+04 0.000E+00 0.000E+00 0.000E+00 0.000E+00 0.000E+00 0.224E-01     1.045     0.987     0.000
PAST   13 000020005    2    0    2.18515E+01   118.900    10.700    10.700     0.000    16.960    12.304   135.424   141.559    76.477    40.384     2.019     0.339     0.000     0.000  1024.421  2005.524    21.634    21.633     0.000     0.210    29.947    53.227    91.476     4.630     7.596     1.664     3.914     4.671     0.089     0.135     0.000     0.000     0.000     0.000     0.000     0.000     0.000     0.000     0.000     0.000     7.966     0.375    -0.014     1.949     0.064     1.182     0.836     0.051     0.000     0.000     0.539     0.076     0.064     0.089     0.002     0.562     0.001     0.014     0.000     0.000     0.000     0.000     0.000     0.000     0.000     0.000 .00000E+00 .00000E+00 0.000E+00 0.359E+04 0.000E+00 0.000E+00 0.000E+00 0.000E+00 0.000E+00 0.171E-02     1.437     0.210     0.000
PAST   14 000020006    2    0    2.15243E+01   118.900    10.700    10.700     0.000    16.960    14.159   631.737   635.745    64.470    35.897     1.795     0.339     0.000     0.000  1023.488  2004.282    32.403    32.401     0.000     0.756    26.775    61.007    93.820     4.630     7.596     1.664     3.998     4.671     0.116     0.106     0.000     0.000     0.000     0.000     0.000     0.000     0.000     0.000     0.000     0.000     9.662     0.399    -0.012     2.389     0.069     1.504     0.803     0.000     0.000     0.000     1.716     0.227     0.200     0.182     0.009     0.458     0.001     0.025     0.000     0.000     0.000     0.000     0.000     0.000     0.000     0.000 .00000E+00 .00000E+00 0.000E+00 0.404E+04 0.000E+00 0.000E+00 0.000E+00 0.000E+00 0.000E+00 0.863E-02     1.075     0.756     0.000
FRST   15 000020007    2    0    2.10436E+01   118.900    10.700    10.700     0.000    16.960    11.300   135.877   141.249    79.231    44.469     2.223     0.339     0.000     0.000  1026.379  2005.541    12.775    12.775     0.000     8.104    31.626    53.920    88.267     4.630     7.596     1.664     3.925     4.671     0.005     0.012     0.000     0.000     0.000     0.000     0.000     0.000     0.000     0.000     0.000     0.000     2.157     0.357    -0.102     0.384     0.061     0.196     0.177     0.039     0.000     0.000     0.025     0.003     0.003     0.011     0.032     0.590     0.002     0.003     0.000     0.000     0.000     0.000     0.000     0.000     0.000     0.000 .00000E+00 .00000E+00 0.000E+00 0.359E+04 0.000E+00 0.000E+00 0.000E+00 0.000E+00 0.000E+00 0.320E-01     1.414     8.104     0.000
FRST   16 000020008    2    0    2.24870E+01   118.900    10.700    10.700     0.000    16.960    11.302   137.006   142.928    87.347    48.848     2.442     0.339     0.000     0.000  1028.976  2006.209    12.970    12.970     0.000     0.238    34.937    49.737    88.354     4.630     7.596     1.664     3.923     4.671     0.001     0.003     0.000     0.000     0.000     0.000     0.000     0.000     0.000     0.000     0.000     0.000     2.100     0.358    -0.102     0.384     0.061     0.187     0.169     0.174     0.000     0.000     0.007     0.001     0.001     0.011     0.001     0.492     0.002     0.004     0.000     0.000     0.000     0.000     0.000     0.000     0.000     0.000 .00000E+00 .00000E+00 0.000E+00 0.359E+04 0.000E+00 0.000E+00 0.000E+00 0.000E+00 0.000E+00 0.657E-03     1.593     0.238     0.000
FRST   17 000020009    2    0    2.84238E+00   118.900    10.700    10.700     0.000    16.960    13.003   630.703   633.749    48.652    26.623     1.331     0.339     0.000     0.000  1016.116  2002.242    21.598    21.598     0.000    18.189    15.969    56.251    91.258     4.630     7.596     1.664     4.022     4.671     0.019     0.024     0.000     0.000     0.000     0.000     0.000     0.000     0.000     0.000     0.000     0.000     2.155     0.379    -0.110     0.384     0.065     0.221     0.146     0.000     0.000     0.000     0.233     0.029     0.025     0.025     0.116     4.981     0.012     0.009     0.000     0.000     0.000     0.000     0.000     0.000     0.000     0.000 .00000E+00 .00000E+00 0.000E+00 0.404E+04 0.000E+00 0.000E+00 0.000E+00 0.000E+00 0.000E+00 0.116E+00     0.494    18.189     0.000
FRST   18 000020010    2    0    2.11953E+01   118.900    10.700    10.700     0.000    16.960    13.005   632.615   636.273    73.328    39.314     1.966     0.339     0.000     0.000  1024.937  2004.789    22.845    22.845     0.000     1.492    28.832    54.375    91.557     4.630     7.596     1.664     4.023     4.671     0.007     0.009     0.000     0.000     0.000     0.000     0.000     0.000     0.000     0.000     0.000     0.000     2.155     0.380    -0.112     0.384     0.065     0.183     0.123     0.000     0.000     0.000     0.094     0.012     0.010     0.022     0.005     2.923     0.012     0.009     0.000     0.000     0.000     0.000     0.000     0.000     0.000     0.000 .00000E+00 .00000E+00 0.000E+00 0.404E+04 0.000E+00 0.000E+00 0.000E+00 0.000E+00 0.000E+00 0.538E-02     1.206     1.492     0.000
AGRR   19 000030001    3    0    2.10553E+02   135.800    10.800    10.800     0.000    16.474    12.325   631.577   635.729    58.229    33.571     1.679     0.329     0.000     0.000  1021.847  2003.704    57.882    57.803     0.000     0.660    24.203    83.578    95.972     4.554     7.511     1.596     3.953     4.659     1.457     0.763     0.000     0.000     0.000     0.000     0.000     0.000     0.000     0.000     0.000     0.000     6.527     0.389    -0.037     1.429     0.067     0.918     0.543     0.000     0.000     0.000    16.854     2.232     1.780     0.316     0.006     0.329     0.001     0.027     0.000     0.000     0.000     0.000     0.000     0.000     0.000     0.000 .00000E+00 .00000E+00 0.000E+00 0.404E+04 0.000E+00 0.000E+00 0.000E+00 0.000E+00 0.000E+00 0.554E-02     0.912     0.660     0.000
BERM   20 000030002    3    0    2.47503E+01   135.800    10.800    10.800     0.000    16.474    13.307   632.566   636.759    73.775    40.500     2.025     0.329     0.000     0.000  1025.925  2004.751    39.922    39.911     0.000     0.881    29.287    71.265    92.562     4.554     7.511     1.596     3.937     4.659     0.056     0.044     0.000     0.000     0.000     0.000     0.000     0.000     0.000     0.000     0.000     0.000    19.397     0.427     0.135     4.831     0.074     3.066     1.551     0.000     0.000     0.000     0.892     0.127     0.127     0.415     0.019     1.028     0.001     0.044     0.000     0.000     0.000     0.000     0.000     0.000     0.000     0.000 .00000E+00 .00000E+00 0.000E+00 0.404E+04 0.000E+00 0.000E+00 0.000E+00 0.000E+00 0.000E+00 0.188E-01     1.186     0.881     0.000
PAST   21 000030003    3    0    2.11129E+02   135.800    10.800    10.800     0.000    16.474    13.724   632.343   636.732    71.784    39.521     1.976     0.329     0.000     0.000  1025.320  2004.796    42.420    42.369     0.000     0.429    28.868    72.875    93.880     4.554     7.511     1.596     3.929     4.659     0.140     0.112     0.000     0.000     0.000     0.000     0.000     0.000     0.000     0.000     0.000     0.000     9.539     0.398    -0.012     2.355     0.068     1.468     0.785     0.000     0.000     0.000     2.530     0.335     0.295     0.223     0.004     0.554     0.001     0.033     0.000     0.000     0.000     0.000     0.000     0.000     0.000     0.000 .00000E+00 .00000E+00 0.000E+00 0.404E+04 0.000E+00 0.000E+00 0.000E+00 0.000E+00 0.000E+00 0.393E-02     1.209     0.429     0.000
FRST   22 000030004    3    0    2.29690E+01   135.800    10.800    10.800     0.000    16.474    12.606   592.657   624.369     0.000     0.000     0.000     0.329     0.000     0.000   976.890  2000.000    10.754    10.754     0.000    46.977     0.000    57.730    83.317     4.554     7.511     1.596     3.934     4.659     0.018     0.037     0.000     0.000     0.000     0.000     0.000     0.000     0.000     0.000     0.000     0.000     2.162     0.376    -0.107     0.384     0.064     0.245     0.153     0.000     0.000     0.000     0.212     0.026     0.023     0.011     0.199     0.000     0.000     0.004     0.000     0.000     0.000     0.000     0.000     0.000     0.000     0.000 .00000E+00 .00000E+00 0.000E+00 0.404E+04 0.000E+00 0.000E+00 0.000E+00 0.000E+00 0.000E+00 0.199E+00     0.000    46.977     0.000
FRST   23 000030005    3    0    2.25383E+01   135.800    10.800    10.800     0.000    16.474    12.607   633.132   637.059    79.550    42.383     2.119     0.329     0.000     0.000  1026.884  2005.167    31.077    31.077     0.000     2.544    30.420    65.342    91.638     4.554     7.511     1.596     3.958     4.659     0.013     0.010     0.000     0.000     0.000     0.000     0.000     0.000     0.000     0.000     0.000     0.000     2.162     0.379    -0.112     0.384     0.065     0.171     0.115     0.000     0.000     0.000     0.172     0.021     0.018     0.028     0.010     2.582     0.011     0.012     0.000     0.000     0.000     0.000     0.000     0.000     0.000     0.000 .00000E+00 .00000E+00 0.000E+00 0.404E+04 0.000E+00 0.000E+00 0.000E+00 0.000E+00 0.000E+00 0.100E-01     1.300     2.544     0.000
FRST   24 000040001    4    0    2.15333E+01   126.800    11.200    11.197     0.000    17.599    13.341   632.472   636.366    73.910    40.055     2.003     0.352     0.000     0.000  1026.286  2004.736    26.822    26.822     0.000     2.786    29.143    59.934    91.530     4.580     7.546     1.614     4.026     4.740     0.017     0.012     0.000     0.000     0.000     0.000     0.000     0.000     0.000     0.000     0.000     0.000     2.170     0.380    -0.111     0.382     0.065     0.180     0.121     0.000     0.000     0.000     0.219     0.027     0.023     0.024     0.012     3.094     0.013     0.011     0.000     0.000     0.000     0.000     0.000     0.000     0.000     0.000 .00000E+00 .00000E+00 0.000E+00 0.404E+04 0.000E+00 0.000E+00 0.000E+00 0.000E+00 0.000E+00 0.118E-01     1.183     2.786     0.000
[...]
PAST   47 000090001    9    0  4.0.66712E+01   768.850    77.550    84.924     0.000   636.729   364.427   117.828   134.005   271.765   275.756    13.788    12.735     0.000     0.000  1005.055  2002.609   138.793   138.843     0.000     1.486   255.113   409.908    91.069     9.148    12.798     5.498     8.879    10.550     0.891     0.965     0.000     0.000     0.000     0.000     0.000     0.000     0.000     0.000     0.000     0.000    15.810     5.058    -0.740     3.901     0.872    -0.345    -0.202     0.148    15.743     3.827     6.402     0.871     0.876     0.293     0.007     1.491     0.013     0.058     0.000     6.137   127.020    86.030     0.000     0.085     0.865     0.000 .00000E+00 .00000E+00 0.207E-01 0.000E+00 0.126E+02 0.000E+00 0.000E+00 0.000E+00 0.000E+00 0.701E-02    14.465     1.486     0.000
AGRR   48 000090002    9    0  4.0.18421E+01   768.850    77.550    84.971     0.000   636.729   445.217   591.132   629.371   117.029   122.543     6.127    12.735     0.000     0.000   998.519  2000.464   208.069   208.082     0.000     7.655   108.794   331.154    93.568     9.148    12.798     5.498     9.155    10.550     4.432     3.106     0.000     0.000    58.956     0.000     0.000     0.000     0.000     0.000     0.000     0.000    37.491     5.538    -0.388     8.335     0.954    -9.008    -7.038     0.000    90.013    16.583    48.830     6.594     5.523     3.139     0.164     0.556     0.003     0.071     0.000    -0.000   110.445    39.479     0.000     0.000     2.591     0.000 .00000E+00 .00000E+00 0.213E-01 0.000E+00 0.126E+02 0.000E+00 0.000E+00 0.000E+00 0.000E+00 0.164E+00     6.623     7.655     0.000
AGRR   49 000090003    9    0  4.0.51680E+01   768.850    77.550    84.970     0.000   636.729   373.884   114.542   129.860   209.685   212.864    10.643    12.735     0.000     0.000  1005.683  2001.305   192.334   192.365     0.000     1.345   194.349   399.428    93.617     9.148    12.798     5.498     9.046    10.550     2.720     2.023     0.000     0.000    56.500     0.000     0.000     0.000     0.000     0.000     0.000     0.000    40.470     5.239     0.077     8.654     0.907    -8.517    -7.460     0.053    89.512    16.266    17.655     2.555     2.007     2.567     0.023     1.636     0.010     0.067     0.000     8.756   110.445    36.251     0.000     0.000     2.580     0.000 .00000E+00 .00000E+00 0.214E-01 0.000E+00 0.126E+02 0.000E+00 0.000E+00 0.000E+00 0.000E+00 0.225E-01    11.369     1.345     0.000
FRST   50 000090004    9    0  4.0.39406E+01   768.850    77.550    84.942     0.000   636.729   369.823   118.603   130.927   315.315   318.315    15.916    12.735     0.000     0.000  1005.362  2002.964    91.249    91.256     0.000     1.720   295.841   405.426    87.563     9.148    12.798     5.498     9.004    10.550     0.012     0.020     0.000     0.000     0.000     0.000     0.000     0.000     0.000     0.000     0.000     0.000     5.252     4.839    -1.907     1.290     0.829    -0.775    -0.604     0.209     7.821     2.057     0.084     0.011     0.009     0.040     0.003     1.087     0.011     0.023     0.000     7.793   128.676    36.392     0.250     5.208     4.323     0.000 .00000E+00 .00000E+00 0.195E-01 0.000E+00 0.126E+02 0.000E+00 0.000E+00 0.000E+00 0.000E+00 0.320E-02    16.609     1.720     0.000
AGRR   51 000100001   10    0  4.0.27549E+01   755.125    70.950    77.915     0.000   631.661   376.491   114.318   129.862   207.216   209.415    10.471    12.633     0.000     0.000  1007.536  2001.520   177.915   177.929     0.000     1.333   190.569   380.960    93.608     9.220    12.814     5.626     9.120    10.492     2.560     1.882     0.000     0.000    57.341     0.000     0.000     0.000     0.000     0.000     0.000     0.000    39.853     5.277     0.069     8.660     0.913    -8.710    -7.635     0.051    90.331    16.479    15.963     2.322     1.822     2.252     0.022     1.524     0.009     0.064     0.000     9.092   109.884    36.994     0.000     0.000     2.597     0.000 .00000E+00 .00000E+00 0.199E-01 0.000E+00 0.120E+02 0.000E+00 0.000E+00 0.000E+00 0.000E+00 0.223E-01    11.129     1.333     0.000
AGRR   52 000100002   10    0  4.0.22154E+01   755.125    70.950    77.915     0.000   631.661   446.879   592.092   629.715   118.861   122.309     6.115    12.633     0.000     0.000  1000.614  2000.559   194.370   194.425     0.000     3.417   108.177   312.619    93.618     9.220    12.814     5.626     9.226    10.492     2.172     1.722     0.000     0.000    57.957     0.000     0.000     0.000     0.000     0.000     0.000     0.000    38.635     5.682    -0.153     8.700     0.979    -9.042    -7.219     0.000    91.494    16.879    32.930     4.427     3.766     2.022     0.068     0.527     0.003     0.082     0.000    -0.000   109.884    40.043     0.000     0.000     2.611     0.000 .00000E+00 .00000E+00 0.199E-01 0.000E+00 0.120E+02 0.000E+00 0.000E+00 0.000E+00 0.000E+00 0.685E-01     6.599     3.417     0.000
FRST   53 000100003   10    0  4.0.40471E+01   755.125    70.950    77.875     0.000   631.661   374.704   118.533   130.874   304.594   307.330    15.367    12.633     0.000     0.000  1005.367  2002.928    82.726    82.733     0.000     1.829   285.261   385.861    87.562     9.220    12.814     5.626     9.078    10.492     0.014     0.020     0.000     0.000     0.000     0.000     0.000     0.000     0.000     0.000     0.000     0.000     5.288     4.871    -1.921     1.305     0.835    -0.777    -0.605     0.188     7.980     2.094     0.088     0.011     0.009     0.041     0.003     1.033     0.010     0.021     0.000     8.021   127.996    35.704     0.043     5.343     4.373     0.000 .00000E+00 .00000E+00 0.175E-01 0.000E+00 0.120E+02 0.000E+00 0.000E+00 0.000E+00 0.000E+00 0.341E-02    16.038     1.829     0.000
PAST   54 000100004   10    0  4.0.12336E+01   755.125    70.950    77.870     0.000   631.661   369.516   117.749   130.715   264.206   267.282    13.364    12.633     0.000     0.000  1004.559  2002.589   127.921   127.932     0.000     1.370   247.104   390.422    91.078     9.220    12.814     5.626     8.954    10.492     0.780     0.790     0.000     0.000     0.000     0.000     0.000     0.000     0.000     0.000     0.000     0.000    16.139     5.107    -0.727     3.985     0.880    -0.366    -0.225     0.128    16.172     3.928     4.952     0.673     0.681     0.278     0.007     1.417     0.011     0.055     0.000     6.361   126.424    86.070     0.000     0.090     0.892     0.000 .00000E+00 .00000E+00 0.188E-01 0.000E+00 0.120E+02 0.000E+00 0.000E+00 0.000E+00 0.000E+00 0.653E-02    14.017     1.370     0.000
PAST   55 000100005   10    0  4.0.27784E+01   755.125    70.950    77.871     0.000   631.661   445.879   601.312   629.830   171.614   173.936     8.697    12.633     0.000     0.000  1006.803  2001.351   142.750   142.832     0.000     3.385   157.136   312.603    90.756     9.220    12.814     5.626     9.086    10.492     0.554     0.583     0.000     0.000     0.000     0.000     0.000     0.000     0.000     0.000     0.000     0.000    20.336     5.623    -0.610     5.027     0.968    -0.504    -0.437     0.000    20.513     4.989    10.028     1.303     1.289     0.466     0.021     0.839     0.005     0.078     0.000    -0.000   126.424    83.473     0.000     0.113     0.982     0.000 .00000E+00 .00000E+00 0.195E-01 0.000E+00 0.120E+02 0.000E+00 0.000E+00 0.000E+00 0.000E+00 0.211E-01     9.250     3.385     0.000
AGRR   56 000110001   11    0  4.0.21004E+02   755.125    70.950    77.913     0.000   631.797   446.902   591.719   629.706   116.738   120.262     6.013    12.636     0.000     0.000  1000.297  2000.538   193.811   193.958     0.000     6.098   106.260   312.803    93.594     9.220    12.814     5.626     9.226    10.492     3.059     2.214     0.000     0.000    58.688     0.000     0.000     0.000     0.000     0.000     0.000     0.000    37.422     5.604    -0.333     8.444     0.965    -9.162    -7.214     0.000    91.085    16.828    43.273     5.852     4.926     1.988     0.122     0.502     0.002     0.071     0.000    -0.000   109.884    40.232     0.000     0.000     2.608     0.000 .00000E+00 .00000E+00 0.199E-01 0.000E+00 0.120E+02 0.000E+00 0.000E+00 0.000E+00 0.000E+00 0.122E+00     6.488     6.098     0.000
BERM   57 000110002   11    0  4.0.91647E+01   755.125    70.950    77.874     0.000   631.797   459.543   593.916   629.844   157.892   160.209     8.010    12.636     0.000     0.000  1005.819  2000.996   137.842   137.864     0.000     8.495   144.226   299.175    87.776     9.220    12.814     5.626     9.204    10.492     0.169     0.189     0.000     0.000    44.165     0.000     0.000     0.000     0.000     0.000     0.000     0.000    78.557     6.536     3.052    19.341     1.146   -10.167    -9.225     0.000   108.230    26.509     2.975     0.421     0.507     2.034     0.246     2.057     0.012     0.123     0.000    -0.000   126.424    58.190     0.000     0.538     1.828     0.000 .00000E+00 .00000E+00 0.195E-01 0.000E+00 0.120E+02 0.000E+00 0.000E+00 0.000E+00 0.000E+00 0.246E+00     8.589     8.495     0.000
PAST   58 000110003   11    0  4.0.17080E+02   755.125    70.950    77.869     0.000   631.797   445.643   601.159   629.823   169.310   171.595     8.580    12.636     0.000     0.000  1006.798  2001.325   142.480   142.607     0.000     6.242   154.869   312.841    90.738     9.220    12.814     5.626     9.085    10.492     0.841     0.753     0.000     0.000     0.000     0.000     0.000     0.000     0.000     0.000     0.000     0.000    20.031     5.602    -0.652     4.953     0.964    -0.473    -0.370     0.000    20.223     4.919    15.185     1.975     1.953     0.460     0.038     0.817     0.005     0.075     0.000    -0.000   126.424    83.640     0.000     0.111     0.976     0.000 .00000E+00 .00000E+00 0.196E-01 0.000E+00 0.120E+02 0.000E+00 0.000E+00 0.000E+00 0.000E+00 0.384E-01     9.123     6.242     0.000
FRST   59 000110004   11    0  4.0.38116E+01   755.125    70.950    77.873     0.000   631.797   374.776   118.522   130.868   304.188   306.922    15.346    12.636     0.000     0.000  1005.365  2002.923    82.717    82.720     0.000     2.174   284.862   385.772    87.561     9.220    12.814     5.626     9.078    10.492     0.019     0.025     0.000     0.000     0.000     0.000     0.000     0.000     0.000     0.000     0.000     0.000     5.287     4.870    -1.921     1.305     0.835    -0.776    -0.604     0.189     7.979     2.094     0.114     0.014     0.012     0.041     0.004     1.032     0.010     0.020     0.000     8.022   127.996    35.715     0.043     5.342     4.373     0.000 .00000E+00 .00000E+00 0.176E-01 0.000E+00 0.120E+02 0.000E+00 0.000E+00 0.000E+00 0.000E+00 0.405E-02    16.017     2.174     0.000
FRST   60 000110005   11    0  4.0.56369E+01   755.125    70.950    77.877     0.000   631.797   449.889   600.679   629.844   193.471   195.709     9.785    12.636     0.000     0.000  1006.125  2001.631   105.370   105.376     0.000    15.225   178.170   309.153    87.107     9.220    12.814     5.626     9.216    10.492     0.044     0.044     0.000     0.000     0.000     0.000     0.000     0.000     0.000     0.000     0.000     0.000     7.193     5.333    -2.013     1.593     0.914    -1.105    -0.877     0.000    11.564     2.731     0.674     0.084     0.074     0.076     0.035     2.154     0.024     0.040     0.000    -0.000   127.996    17.107     0.043     6.995     4.764     0.000 .00000E+00 .00000E+00 0.182E-01 0.000E+00 0.120E+02 0.000E+00 0.000E+00 0.000E+00 0.000E+00 0.348E-01    10.382    15.225     0.000
FRST   61 000110006   11    0  4.0.25885E+01   755.125    70.950    77.878     0.000   631.797   442.457   564.894   607.375    48.203    48.202     2.410    12.636     0.000     0.000   986.927  2000.126    74.466    74.466     0.000   193.398    30.717   300.960    81.147     9.220    12.814     5.626     9.213    10.492     0.101     0.106     0.000     0.000     0.000     0.000     0.000     0.000     0.000     0.000     0.000     0.000     8.723     5.258    -1.912     1.673     0.901    -1.068    -0.841     0.000    14.937     3.018     1.370     0.170     0.150     0.075     0.612     3.769     0.011     0.028     0.000    -0.000   127.996     2.208     0.043     7.716     4.904     0.000 .00000E+00 .00000E+00 0.170E-01 0.000E+00 0.120E+02 0.000E+00 0.000E+00 0.000E+00 0.000E+00 0.612E+00     2.379   193.398     0.000
FRST   62 000120001   12    0  4.0.27673E+01   768.850    77.550    84.943     0.000   636.822   446.991   600.562   629.855   191.826   194.260     9.713    12.736     0.000     0.000  1006.843  2001.474   114.481   114.482     0.000    24.940   176.710   326.455    87.062     9.148    12.798     5.498     9.146    10.550     0.042     0.047     0.000     0.000     0.000     0.000     0.000     0.000     0.000     0.000     0.000     0.000     7.240     5.312    -1.999     1.593     0.910    -1.100    -0.873     0.000    11.510     2.721     0.656     0.081     0.072     0.075     0.058     2.266     0.025     0.044     0.000     0.000   128.676    17.057     0.250     6.912     4.750     0.000 .00000E+00 .00000E+00 0.202E-01 0.000E+00 0.126E+02 0.000E+00 0.000E+00 0.000E+00 0.000E+00 0.579E-01    10.323    24.940     0.000
FRST   63 000120002   12    0  4.0.24598E+01   768.850    77.550    84.943     0.000   636.822   439.329   565.026   602.234    48.152    48.150     2.407    12.736     0.000     0.000   991.614  2000.146    81.108    81.109     0.000   203.491    29.335   316.306    81.106     9.148    12.798     5.498     9.142    10.550     0.107     0.124     0.000     0.000     0.000     0.000     0.000     0.000     0.000     0.000     0.000     0.000     8.844     5.232    -1.895     1.674     0.897    -1.060    -0.831     0.000    14.940     3.002     1.567     0.194     0.171     0.076     0.651     3.657     0.010     0.030     0.000    -0.000   128.676     2.552     0.250     7.617     4.889     0.000 .00000E+00 .00000E+00 0.188E-01 0.000E+00 0.126E+02 0.000E+00 0.000E+00 0.000E+00 0.000E+00 0.651E+00     2.371   203.491     0.000
FRST   64 000120003   12    0  4.0.35295E+01   768.850    77.550    84.943     0.000   636.822   329.456    25.558    31.424   316.807   318.032    15.902    12.736     0.000     0.000  1007.506  2003.262   118.600   118.600     0.000    13.201   294.181   442.606    89.061     9.148    12.798     5.498     9.276    10.550     0.011     0.012     0.000     0.000     0.000     0.000     0.000     0.000     0.000     0.000     0.000     0.000     4.196     6.476    -2.924     1.036     1.110    -0.425    -0.400     1.711     7.152     1.810     0.067     0.008     0.005     0.049     0.018     0.888     0.007     0.026     0.000    20.005   128.676    35.217     0.250     4.443     4.099     0.000 .00000E+00 .00000E+00 0.201E-01 0.000E+00 0.126E+02 0.000E+00 0.000E+00 0.000E+00 0.000E+00 0.184E-01    16.624    13.201     0.000
FRST   65 000120004   12    0  4.0.27760E+01   768.850    77.550    84.943     0.000   636.822   322.707    24.555    31.292   216.588   217.603    10.880    12.736     0.000     0.000  1007.056  2001.923   115.918   115.919     0.000   122.357   197.079   446.814    88.650     9.148    12.798     5.498     9.303    10.550     0.029     0.033     0.000     0.000     0.000     0.000     0.000     0.000     0.000     0.000     0.000     0.000     5.433     6.440    -2.812     1.159     1.104    -0.441    -0.416     0.963     8.537     2.049     0.177     0.022     0.013     0.066     0.220     0.746     0.005     0.025     0.000    24.589   128.676    24.274     0.250     4.986     4.362     0.000 .00000E+00 .00000E+00 0.199E-01 0.000E+00 0.126E+02 0.000E+00 0.000E+00 0.000E+00 0.000E+00 0.220E+00    11.459   122.357     0.000
BERM   66 000120005   12    0  4.0.42536E+01   768.850    77.550    84.928     0.000   636.822   330.300    24.969    31.425   283.128   284.366    14.218    12.736     0.000     0.000  1008.292  2002.708   158.573   158.575     0.000     6.058   261.689   441.278    90.017     9.148    12.798     5.498     9.276    10.550     0.040     0.043     0.000     0.000    49.041     0.000     0.000     0.000     0.000     0.000     0.000     0.000    74.543     7.628     2.461    18.475     1.339    -9.782    -9.681     6.560   102.913    25.319     0.316     0.049     0.045     2.169     0.171     3.449     0.024     0.135     0.000    25.713   127.020    51.136     0.000     0.424     1.675     0.000 .00000E+00 .00000E+00 0.211E-01 0.000E+00 0.126E+02 0.000E+00 0.000E+00 0.000E+00 0.000E+00 0.171E+00    14.956     6.058     0.000
PAST   67 000120006   12    0  4.0.11472E+02   768.850    77.550    84.925     0.000   636.822   324.175    25.595    31.452   284.557   285.491    14.275    12.736     0.000     0.000  1007.834  2003.036   164.350   164.384     0.000     4.910   262.815   447.029    92.160     9.148    12.798     5.498     9.070    10.550     0.313     0.253     0.000     0.000     0.000     0.000     0.000     0.000     0.000     0.000     0.000     0.000    13.145     6.723    -1.891     3.114     1.155    -0.108    -0.122     1.935    13.883     3.223     2.310     0.299     0.218     0.260     0.020     1.083     0.008     0.055     0.000    17.066   127.020    80.871     0.000     0.072     0.784     0.000 .00000E+00 .00000E+00 0.212E-01 0.000E+00 0.126E+02 0.000E+00 0.000E+00 0.000E+00 0.000E+00 0.197E-01    14.920     4.910     0.000
AGRR   68 000120007   12    0  4.0.33295E+01   768.850    77.550    84.972     0.000   636.822   445.150   590.849   629.315   115.490   121.081     6.054    12.736     0.000     0.000   998.413  2000.455   207.647   207.654     0.000     9.737   107.400   331.332    93.550     9.148    12.798     5.498     9.155    10.550     6.787     4.285     0.000     0.000    59.895     0.000     0.000     0.000     0.000     0.000     0.000     0.000    35.975     5.457    -0.588     8.017     0.940    -9.185    -7.088     0.000    89.590    16.532    58.032     7.903     6.501     3.115     0.207     0.532     0.003     0.060     0.000    -0.000   110.445    39.811     0.000     0.000     2.588     0.000 .00000E+00 .00000E+00 0.213E-01 0.000E+00 0.126E+02 0.000E+00 0.000E+00 0.000E+00 0.000E+00 0.207E+00     6.541     9.737     0.000
AGRR   69 000120008   12    0  4.0.56982E+01   768.850    77.550    84.969     0.000   636.822   320.645    24.983    31.372   226.100   227.384    11.369    12.736     0.000     0.000  1007.293  2001.879   226.435   226.446     0.000     4.683   206.619   449.792    94.489     9.148    12.798     5.498     9.385    10.550     0.736     0.417     0.000     0.000    48.409     0.000     0.000     0.000     0.000     0.000     0.000     0.000    45.722     7.077    -0.191     7.831     1.218    -6.342    -6.033     1.435    85.191    13.567     5.453     0.714     0.463     3.261     0.112     1.472     0.008     0.081     0.000    25.852   110.445    23.733     0.000     0.000     2.351     0.000 .00000E+00 .00000E+00 0.214E-01 0.000E+00 0.126E+02 0.316E+04 0.107E+06 0.000E+00 0.000E+00 0.112E+00    12.043     4.683     0.000
